
     RDKit          2D

 31 35  0  0  0  0  0  0  0  0999 V2000
  -10.0742   -0.4703    0.0000 C   0  0  0  0  0  0  0  0  0  0  0  0
   -8.9030   -1.4075    0.0000 O   0  0  0  0  0  0  0  0  0  0  0  0
   -7.5058   -0.8618    0.0000 C   0  0  0  0  0  0  0  0  0  0  0  0
   -6.3346   -1.7991    0.0000 C   0  0  0  0  0  0  0  0  0  0  0  0
   -4.9374   -1.2534    0.0000 C   0  0  0  0  0  0  0  0  0  0  0  0
   -4.7113    0.2295    0.0000 C   0  0  0  0  0  0  0  0  0  0  0  0
   -5.8825    1.1667    0.0000 C   0  0  0  0  0  0  0  0  0  0  0  0
   -7.2797    0.6210    0.0000 C   0  0  0  0  0  0  0  0  0  0  0  0
   -8.4509    1.5582    0.0000 O   0  0  0  0  0  0  0  0  0  0  0  0
   -8.2248    3.0411    0.0000 C   0  0  0  0  0  0  0  0  0  0  0  0
   -3.3141    0.7751    0.0000 C   0  0  0  0  0  0  0  0  0  0  0  0
   -2.1429   -0.1621    0.0000 N   0  0  0  0  0  0  0  0  0  0  0  0
   -0.7457    0.3836    0.0000 C   0  0  0  0  0  0  0  0  0  0  0  0
    0.4255   -0.5536    0.0000 C   0  0  0  0  0  0  0  0  0  0  0  0
    1.8227   -0.0080    0.0000 C   0  0  0  0  0  0  0  0  0  0  0  0
    2.9939   -0.9452    0.0000 C   0  0  0  0  0  0  0  0  0  0  0  0
    4.3911   -0.3995    0.0000 N   0  0  0  0  0  0  0  0  0  0  0  0
    5.6538   -1.2092    0.0000 C   0  0  0  0  0  0  0  0  0  0  0  0
    5.8971   -2.6893    0.0000 C   0  0  0  0  0  0  0  0  0  0  0  0
    7.3005   -3.2187    0.0000 C   0  0  0  0  0  0  0  0  0  0  0  0
    8.4608   -2.2680    0.0000 C   0  0  0  0  0  0  0  0  0  0  0  0
    8.2175   -0.7879    0.0000 C   0  0  0  0  0  0  0  0  0  0  0  0
    6.8141   -0.2584    0.0000 C   0  0  0  0  0  0  0  0  0  0  0  0
    6.2684    1.1388    0.0000 C   0  0  0  0  0  0  0  0  0  0  0  0
    6.9416    2.4792    0.0000 C   0  0  0  0  0  0  0  0  0  0  0  0
    6.1174    3.7325    0.0000 C   0  0  0  0  0  0  0  0  0  0  0  0
    4.6199    3.6453    0.0000 C   0  0  0  0  0  0  0  0  0  0  0  0
    3.9467    2.3049    0.0000 C   0  0  0  0  0  0  0  0  0  0  0  0
    4.7709    1.0516    0.0000 C   0  0  0  0  0  0  0  0  0  0  0  0
   -2.3690   -1.6449    0.0000 C   0  0  0  0  0  0  0  0  0  0  0  0
   -3.7662   -2.1906    0.0000 C   0  0  0  0  0  0  0  0  0  0  0  0
  1  2  1  0
  2  3  1  0
  3  4  2  0
  4  5  1  0
  5  6  2  0
  6  7  1  0
  7  8  2  0
  8  9  1  0
  9 10  1  0
  6 11  1  0
 11 12  1  0
 12 13  1  0
 13 14  1  0
 14 15  1  0
 15 16  1  0
 16 17  1  0
 17 18  1  0
 18 19  2  0
 19 20  1  0
 20 21  2  0
 21 22  1  0
 22 23  2  0
 23 24  1  0
 24 25  2  0
 25 26  1  0
 26 27  2  0
 27 28  1  0
 28 29  2  0
 12 30  1  0
 30 31  1  0
  8  3  1  0
 29 17  1  0
 31  5  1  0
 23 18  1  0
 29 24  1  0
M  END
>  <Ki>  (1) 
0.04

>  <database>  (1) 
SRSLDB

$$$$

     RDKit          2D

 34 37  0  0  0  0  0  0  0  0999 V2000
  -11.2880    1.2470    0.0000 C   0  0  0  0  0  0  0  0  0  0  0  0
  -10.4778   -0.0153    0.0000 O   0  0  0  0  0  0  0  0  0  0  0  0
   -8.9794    0.0552    0.0000 C   0  0  0  0  0  0  0  0  0  0  0  0
   -8.2913    1.3881    0.0000 C   0  0  0  0  0  0  0  0  0  0  0  0
   -6.7930    1.4586    0.0000 C   0  0  0  0  0  0  0  0  0  0  0  0
   -5.9827    0.1963    0.0000 C   0  0  0  0  0  0  0  0  0  0  0  0
   -6.6708   -1.1366    0.0000 C   0  0  0  0  0  0  0  0  0  0  0  0
   -8.1692   -1.2071    0.0000 C   0  0  0  0  0  0  0  0  0  0  0  0
   -8.8573   -2.5400    0.0000 O   0  0  0  0  0  0  0  0  0  0  0  0
   -8.0470   -3.8023    0.0000 C   0  0  0  0  0  0  0  0  0  0  0  0
   -4.4844    0.2668    0.0000 C   0  0  0  0  0  0  0  0  0  0  0  0
   -3.7963    1.5997    0.0000 N   0  0  0  0  0  0  0  0  0  0  0  0
   -2.2980    1.6702    0.0000 C   0  0  0  0  0  0  0  0  0  0  0  0
   -1.4877    0.4079    0.0000 C   0  0  0  0  0  0  0  0  0  0  0  0
    0.0106    0.4784    0.0000 C   0  0  0  0  0  0  0  0  0  0  0  0
    0.8209   -0.7839    0.0000 C   0  0  0  0  0  0  0  0  0  0  0  0
    2.3192   -0.7134    0.0000 N   0  0  0  0  0  0  0  0  0  0  0  0
    3.1295   -1.9757    0.0000 C   0  0  0  0  0  0  0  0  0  0  0  0
    2.4414   -3.3086    0.0000 O   0  0  0  0  0  0  0  0  0  0  0  0
    4.6278   -1.9052    0.0000 C   0  0  0  0  0  0  0  0  0  0  0  0
    5.4515   -0.6515    0.0000 C   0  0  0  0  0  0  0  0  0  0  0  0
    6.8983   -1.0475    0.0000 N   0  0  0  0  0  0  0  0  0  0  0  0
    8.0690   -0.1097    0.0000 C   0  0  0  0  0  0  0  0  0  0  0  0
    9.4665   -0.6547    0.0000 C   0  0  0  0  0  0  0  0  0  0  0  0
   10.6372    0.2831    0.0000 C   0  0  0  0  0  0  0  0  0  0  0  0
   10.4104    1.7658    0.0000 C   0  0  0  0  0  0  0  0  0  0  0  0
    9.0129    2.3108    0.0000 C   0  0  0  0  0  0  0  0  0  0  0  0
    7.8422    1.3731    0.0000 C   0  0  0  0  0  0  0  0  0  0  0  0
    6.4447    1.9180    0.0000 O   0  0  0  0  0  0  0  0  0  0  0  0
    6.2180    3.4008    0.0000 C   0  0  0  0  0  0  0  0  0  0  0  0
    6.9688   -2.5458    0.0000 N   0  0  0  0  0  0  0  0  0  0  0  0
    5.5656   -3.0759    0.0000 N   0  0  0  0  0  0  0  0  0  0  0  0
   -4.6066    2.8620    0.0000 C   0  0  0  0  0  0  0  0  0  0  0  0
   -6.1049    2.7915    0.0000 C   0  0  0  0  0  0  0  0  0  0  0  0
  1  2  1  0
  2  3  1  0
  3  4  2  0
  4  5  1  0
  5  6  2  0
  6  7  1  0
  7  8  2  0
  8  9  1  0
  9 10  1  0
  6 11  1  0
 11 12  1  0
 12 13  1  0
 13 14  1  0
 14 15  1  0
 15 16  1  0
 16 17  1  0
 17 18  1  0
 18 19  2  0
 18 20  1  0
 20 21  2  0
 21 22  1  0
 22 23  1  0
 23 24  2  0
 24 25  1  0
 25 26  2  0
 26 27  1  0
 27 28  2  0
 28 29  1  0
 29 30  1  0
 22 31  1  0
 31 32  2  0
 12 33  1  0
 33 34  1  0
  8  3  1  0
 32 20  1  0
 34  5  1  0
 28 23  1  0
M  END
>  <ChemBL_ID>  (2) 
CHEMBL3262517

>  <Ki>  (2) 
1.5

>  <database>  (2) 
SRSLDB

$$$$

     RDKit          2D

 26 29  0  0  0  0  0  0  0  0999 V2000
    5.3422   -3.6662    0.0000 S   0  0  0  0  0  0  0  0  0  0  0  0
    5.6027   -2.1890    0.0000 C   0  0  0  0  0  0  0  0  0  0  0  0
    6.9510   -1.5315    0.0000 S   0  0  0  0  0  0  0  0  0  0  0  0
    6.7423   -0.0461    0.0000 C   0  0  0  0  0  0  0  0  0  0  0  0
    7.7065    1.1029    0.0000 C   0  0  0  0  0  0  0  0  0  0  0  0
    7.1936    2.5125    0.0000 C   0  0  0  0  0  0  0  0  0  0  0  0
    5.7164    2.7730    0.0000 C   0  0  0  0  0  0  0  0  0  0  0  0
    4.7522    1.6240    0.0000 C   0  0  0  0  0  0  0  0  0  0  0  0
    5.2651    0.2145    0.0000 C   0  0  0  0  0  0  0  0  0  0  0  0
    4.5608   -1.1099    0.0000 N   0  0  0  0  0  0  0  0  0  0  0  0
    3.0754   -1.3186    0.0000 C   0  0  0  0  0  0  0  0  0  0  0  0
    2.1520   -0.1365    0.0000 C   0  0  0  0  0  0  0  0  0  0  0  0
    0.6666   -0.3452    0.0000 C   0  0  0  0  0  0  0  0  0  0  0  0
   -0.2569    0.8369    0.0000 C   0  0  0  0  0  0  0  0  0  0  0  0
   -1.7423    0.6283    0.0000 N   0  0  0  0  0  0  0  0  0  0  0  0
   -2.6657    1.8103    0.0000 C   0  0  0  0  0  0  0  0  0  0  0  0
   -4.1511    1.6017    0.0000 C   0  0  0  0  0  0  0  0  0  0  0  0
   -4.7131    0.2109    0.0000 N   0  0  0  0  0  0  0  0  0  0  0  0
   -6.1985    0.0023    0.0000 C   0  0  0  0  0  0  0  0  0  0  0  0
   -7.1219    1.1843    0.0000 C   0  0  0  0  0  0  0  0  0  0  0  0
   -8.6074    0.9757    0.0000 C   0  0  0  0  0  0  0  0  0  0  0  0
   -9.1694   -0.4151    0.0000 C   0  0  0  0  0  0  0  0  0  0  0  0
   -8.2459   -1.5971    0.0000 C   0  0  0  0  0  0  0  0  0  0  0  0
   -6.7605   -1.3885    0.0000 C   0  0  0  0  0  0  0  0  0  0  0  0
   -3.7897   -0.9712    0.0000 C   0  0  0  0  0  0  0  0  0  0  0  0
   -2.3043   -0.7625    0.0000 C   0  0  0  0  0  0  0  0  0  0  0  0
  1  2  2  0
  2  3  1  0
  3  4  1  0
  4  5  2  0
  5  6  1  0
  6  7  2  0
  7  8  1  0
  8  9  2  0
  9 10  1  0
 10 11  1  0
 11 12  1  0
 12 13  1  0
 13 14  1  0
 14 15  1  0
 15 16  1  0
 16 17  1  0
 17 18  1  0
 18 19  1  0
 19 20  1  0
 20 21  1  0
 21 22  1  0
 22 23  1  0
 23 24  1  0
 18 25  1  0
 25 26  1  0
 10  2  1  0
 26 15  1  0
  9  4  1  0
 24 19  1  0
M  END
>  <ChemBL_ID>  (3) 
CHEMBL272603

>  <Compound_Key>  (3) 
CM156 (24)

>  <Ki>  (3) 
0.55

>  <database>  (3) 
SRSLDB

$$$$

     RDKit          2D

 34 37  0  0  0  0  0  0  0  0999 V2000
  -12.6440    2.8038    0.0000 C   0  0  0  0  0  0  0  0  0  0  0  0
  -12.3493    1.3330    0.0000 O   0  0  0  0  0  0  0  0  0  0  0  0
  -10.9282    0.8529    0.0000 C   0  0  0  0  0  0  0  0  0  0  0  0
   -9.8019    1.8435    0.0000 C   0  0  0  0  0  0  0  0  0  0  0  0
   -8.3808    1.3634    0.0000 C   0  0  0  0  0  0  0  0  0  0  0  0
   -8.0861   -0.1074    0.0000 C   0  0  0  0  0  0  0  0  0  0  0  0
   -6.6650   -0.5875    0.0000 N   0  0  0  0  0  0  0  0  0  0  0  0
   -5.4413    0.2800    0.0000 C   0  0  0  0  0  0  0  0  0  0  0  0
   -4.2381   -0.6158    0.0000 C   0  0  0  0  0  0  0  0  0  0  0  0
   -2.8062   -0.1690    0.0000 C   0  0  0  0  0  0  0  0  0  0  0  0
   -2.4772    1.2945    0.0000 O   0  0  0  0  0  0  0  0  0  0  0  0
   -1.7033   -1.1856    0.0000 N   0  0  0  0  0  0  0  0  0  0  0  0
   -0.2714   -0.7387    0.0000 C   0  0  0  0  0  0  0  0  0  0  0  0
    0.8316   -1.7554    0.0000 C   0  0  0  0  0  0  0  0  0  0  0  0
    2.2635   -1.3085    0.0000 C   0  0  0  0  0  0  0  0  0  0  0  0
    3.3664   -2.3252    0.0000 C   0  0  0  0  0  0  0  0  0  0  0  0
    4.7983   -1.8783    0.0000 N   0  0  0  0  0  0  0  0  0  0  0  0
    5.9012   -2.8949    0.0000 C   0  0  0  0  0  0  0  0  0  0  0  0
    7.3331   -2.4481    0.0000 C   0  0  0  0  0  0  0  0  0  0  0  0
    7.6621   -0.9846    0.0000 C   0  0  0  0  0  0  0  0  0  0  0  0
    9.0940   -0.5378    0.0000 C   0  0  0  0  0  0  0  0  0  0  0  0
    9.4229    0.9257    0.0000 C   0  0  0  0  0  0  0  0  0  0  0  0
   10.8548    1.3726    0.0000 O   0  0  0  0  0  0  0  0  0  0  0  0
   11.9578    0.3559    0.0000 C   0  0  0  0  0  0  0  0  0  0  0  0
    8.3200    1.9424    0.0000 C   0  0  0  0  0  0  0  0  0  0  0  0
    8.6490    3.4058    0.0000 O   0  0  0  0  0  0  0  0  0  0  0  0
    7.5460    4.4225    0.0000 C   0  0  0  0  0  0  0  0  0  0  0  0
    6.8881    1.4955    0.0000 C   0  0  0  0  0  0  0  0  0  0  0  0
    6.5591    0.0320    0.0000 C   0  0  0  0  0  0  0  0  0  0  0  0
    5.1272   -0.4148    0.0000 C   0  0  0  0  0  0  0  0  0  0  0  0
   -4.7182   -2.0369    0.0000 N   0  0  0  0  0  0  0  0  0  0  0  0
   -6.2181   -2.0194    0.0000 N   0  0  0  0  0  0  0  0  0  0  0  0
   -9.2124   -1.0980    0.0000 C   0  0  0  0  0  0  0  0  0  0  0  0
  -10.6335   -0.6178    0.0000 C   0  0  0  0  0  0  0  0  0  0  0  0
  1  2  1  0
  2  3  1  0
  3  4  2  0
  4  5  1  0
  5  6  2  0
  6  7  1  0
  7  8  1  0
  8  9  2  0
  9 10  1  0
 10 11  2  0
 10 12  1  0
 12 13  1  0
 13 14  1  0
 14 15  1  0
 15 16  1  0
 16 17  1  0
 17 18  1  0
 18 19  1  0
 19 20  1  0
 20 21  2  0
 21 22  1  0
 22 23  1  0
 23 24  1  0
 22 25  2  0
 25 26  1  0
 26 27  1  0
 25 28  1  0
 28 29  2  0
 29 30  1  0
  9 31  1  0
 31 32  2  0
  6 33  1  0
 33 34  2  0
 34  3  1  0
 32  7  1  0
 30 17  1  0
 29 20  1  0
M  END
>  <ChemBL_ID>  (4) 
CHEMBL3262519

>  <Ki>  (4) 
5.5

>  <database>  (4) 
SRSLDB

$$$$

     RDKit          2D

 34 37  0  0  0  0  0  0  0  0999 V2000
  -13.2110   -0.3249    0.0000 C   0  0  0  0  0  0  0  0  0  0  0  0
  -11.8132   -0.8692    0.0000 O   0  0  0  0  0  0  0  0  0  0  0  0
  -10.6429    0.0691    0.0000 C   0  0  0  0  0  0  0  0  0  0  0  0
  -10.8704    1.5517    0.0000 C   0  0  0  0  0  0  0  0  0  0  0  0
   -9.7001    2.4900    0.0000 C   0  0  0  0  0  0  0  0  0  0  0  0
   -8.3023    1.9457    0.0000 C   0  0  0  0  0  0  0  0  0  0  0  0
   -8.0749    0.4630    0.0000 C   0  0  0  0  0  0  0  0  0  0  0  0
   -6.6772   -0.0813    0.0000 N   0  0  0  0  0  0  0  0  0  0  0  0
   -5.4152    0.7295    0.0000 C   0  0  0  0  0  0  0  0  0  0  0  0
   -4.2541   -0.2201    0.0000 C   0  0  0  0  0  0  0  0  0  0  0  0
   -2.8033    0.1610    0.0000 C   0  0  0  0  0  0  0  0  0  0  0  0
   -2.4081    1.6080    0.0000 O   0  0  0  0  0  0  0  0  0  0  0  0
   -1.7478   -0.9048    0.0000 N   0  0  0  0  0  0  0  0  0  0  0  0
   -0.2971   -0.5236    0.0000 C   0  0  0  0  0  0  0  0  0  0  0  0
    0.7584   -1.5894    0.0000 C   0  0  0  0  0  0  0  0  0  0  0  0
    2.2092   -1.2082    0.0000 C   0  0  0  0  0  0  0  0  0  0  0  0
    3.2647   -2.2740    0.0000 C   0  0  0  0  0  0  0  0  0  0  0  0
    4.7154   -1.8929    0.0000 N   0  0  0  0  0  0  0  0  0  0  0  0
    5.7709   -2.9587    0.0000 C   0  0  0  0  0  0  0  0  0  0  0  0
    7.2217   -2.5775    0.0000 C   0  0  0  0  0  0  0  0  0  0  0  0
    7.6169   -1.1305    0.0000 C   0  0  0  0  0  0  0  0  0  0  0  0
    9.0677   -0.7493    0.0000 C   0  0  0  0  0  0  0  0  0  0  0  0
    9.4630    0.6977    0.0000 C   0  0  0  0  0  0  0  0  0  0  0  0
   10.9137    1.0788    0.0000 O   0  0  0  0  0  0  0  0  0  0  0  0
   11.9692    0.0130    0.0000 C   0  0  0  0  0  0  0  0  0  0  0  0
    8.4075    1.7635    0.0000 C   0  0  0  0  0  0  0  0  0  0  0  0
    8.8028    3.2105    0.0000 O   0  0  0  0  0  0  0  0  0  0  0  0
    7.7473    4.2763    0.0000 C   0  0  0  0  0  0  0  0  0  0  0  0
    6.9567    1.3823    0.0000 C   0  0  0  0  0  0  0  0  0  0  0  0
    6.5615   -0.0647    0.0000 C   0  0  0  0  0  0  0  0  0  0  0  0
    5.1107   -0.4459    0.0000 C   0  0  0  0  0  0  0  0  0  0  0  0
   -4.7984   -1.6179    0.0000 N   0  0  0  0  0  0  0  0  0  0  0  0
   -6.2960   -1.5321    0.0000 N   0  0  0  0  0  0  0  0  0  0  0  0
   -9.2452   -0.4753    0.0000 C   0  0  0  0  0  0  0  0  0  0  0  0
  1  2  1  0
  2  3  1  0
  3  4  2  0
  4  5  1  0
  5  6  2  0
  6  7  1  0
  7  8  1  0
  8  9  1  0
  9 10  2  0
 10 11  1  0
 11 12  2  0
 11 13  1  0
 13 14  1  0
 14 15  1  0
 15 16  1  0
 16 17  1  0
 17 18  1  0
 18 19  1  0
 19 20  1  0
 20 21  1  0
 21 22  2  0
 22 23  1  0
 23 24  1  0
 24 25  1  0
 23 26  2  0
 26 27  1  0
 27 28  1  0
 26 29  1  0
 29 30  2  0
 30 31  1  0
 10 32  1  0
 32 33  2  0
  7 34  2  0
 34  3  1  0
 33  8  1  0
 31 18  1  0
 30 21  1  0
M  END
>  <ChemBL_ID>  (5) 
CHEMBL3262518

>  <Ki>  (5) 
3.0

>  <database>  (5) 
SRSLDB

$$$$

     RDKit          2D

 34 37  0  0  0  0  0  0  0  0999 V2000
  -11.9608    0.7142    0.0000 C   0  0  0  0  0  0  0  0  0  0  0  0
  -11.0358   -0.4667    0.0000 O   0  0  0  0  0  0  0  0  0  0  0  0
   -9.5507   -0.2561    0.0000 C   0  0  0  0  0  0  0  0  0  0  0  0
   -8.9906    1.1354    0.0000 C   0  0  0  0  0  0  0  0  0  0  0  0
   -7.5054    1.3461    0.0000 C   0  0  0  0  0  0  0  0  0  0  0  0
   -6.5804    0.1652    0.0000 C   0  0  0  0  0  0  0  0  0  0  0  0
   -7.1406   -1.2263    0.0000 C   0  0  0  0  0  0  0  0  0  0  0  0
   -8.6257   -1.4369    0.0000 C   0  0  0  0  0  0  0  0  0  0  0  0
   -9.1859   -2.8284    0.0000 O   0  0  0  0  0  0  0  0  0  0  0  0
   -8.2609   -4.0092    0.0000 C   0  0  0  0  0  0  0  0  0  0  0  0
   -5.0953    0.3758    0.0000 C   0  0  0  0  0  0  0  0  0  0  0  0
   -4.5351    1.7673    0.0000 N   0  0  0  0  0  0  0  0  0  0  0  0
   -3.0500    1.9780    0.0000 C   0  0  0  0  0  0  0  0  0  0  0  0
   -2.1250    0.7971    0.0000 C   0  0  0  0  0  0  0  0  0  0  0  0
   -0.6399    1.0077    0.0000 C   0  0  0  0  0  0  0  0  0  0  0  0
    0.2851   -0.1731    0.0000 C   0  0  0  0  0  0  0  0  0  0  0  0
    1.7702    0.0375    0.0000 N   0  0  0  0  0  0  0  0  0  0  0  0
    2.6952   -1.1433    0.0000 C   0  0  0  0  0  0  0  0  0  0  0  0
    2.1351   -2.5348    0.0000 O   0  0  0  0  0  0  0  0  0  0  0  0
    4.1804   -0.9327    0.0000 C   0  0  0  0  0  0  0  0  0  0  0  0
    4.8829    0.3926    0.0000 C   0  0  0  0  0  0  0  0  0  0  0  0
    6.3604    0.1340    0.0000 N   0  0  0  0  0  0  0  0  0  0  0  0
    7.4381    1.1773    0.0000 C   0  0  0  0  0  0  0  0  0  0  0  0
    8.8805    0.7657    0.0000 C   0  0  0  0  0  0  0  0  0  0  0  0
    9.2453   -0.6893    0.0000 C   0  0  0  0  0  0  0  0  0  0  0  0
   10.6877   -1.1009    0.0000 C   0  0  0  0  0  0  0  0  0  0  0  0
   11.7654   -0.0576    0.0000 C   0  0  0  0  0  0  0  0  0  0  0  0
   13.2078   -0.4692    0.0000 O   0  0  0  0  0  0  0  0  0  0  0  0
   11.4006    1.3974    0.0000 C   0  0  0  0  0  0  0  0  0  0  0  0
    9.9582    1.8091    0.0000 C   0  0  0  0  0  0  0  0  0  0  0  0
    6.5711   -1.3511    0.0000 N   0  0  0  0  0  0  0  0  0  0  0  0
    5.2237   -2.0104    0.0000 N   0  0  0  0  0  0  0  0  0  0  0  0
   -5.4601    2.9482    0.0000 C   0  0  0  0  0  0  0  0  0  0  0  0
   -6.9453    2.7375    0.0000 C   0  0  0  0  0  0  0  0  0  0  0  0
  1  2  1  0
  2  3  1  0
  3  4  2  0
  4  5  1  0
  5  6  2  0
  6  7  1  0
  7  8  2  0
  8  9  1  0
  9 10  1  0
  6 11  1  0
 11 12  1  0
 12 13  1  0
 13 14  1  0
 14 15  1  0
 15 16  1  0
 16 17  1  0
 17 18  1  0
 18 19  2  0
 18 20  1  0
 20 21  2  0
 21 22  1  0
 22 23  1  0
 23 24  1  0
 24 25  2  0
 25 26  1  0
 26 27  2  0
 27 28  1  0
 27 29  1  0
 29 30  2  0
 22 31  1  0
 31 32  2  0
 12 33  1  0
 33 34  1  0
  8  3  1  0
 32 20  1  0
 34  5  1  0
 30 24  1  0
M  END
>  <ChemBL_ID>  (6) 
CHEMBL3262526

>  <Ki>  (6) 
11.6

>  <database>  (6) 
SRSLDB

$$$$

     RDKit          2D

 33 37  0  0  0  0  0  0  0  0999 V2000
    3.2598   -5.7380    0.0000 O   0  0  0  0  0  0  0  0  0  0  0  0
    3.8209   -4.3469    0.0000 C   0  0  0  0  0  0  0  0  0  0  0  0
    5.2761   -3.9832    0.0000 O   0  0  0  0  0  0  0  0  0  0  0  0
    5.3798   -2.4868    0.0000 C   0  0  0  0  0  0  0  0  0  0  0  0
    6.5613   -1.5625    0.0000 C   0  0  0  0  0  0  0  0  0  0  0  0
    6.3516   -0.0773    0.0000 C   0  0  0  0  0  0  0  0  0  0  0  0
    4.9605    0.4838    0.0000 C   0  0  0  0  0  0  0  0  0  0  0  0
    4.7509    1.9691    0.0000 C   0  0  0  0  0  0  0  0  0  0  0  0
    5.9323    2.8933    0.0000 C   0  0  0  0  0  0  0  0  0  0  0  0
    5.7227    4.3786    0.0000 C   0  0  0  0  0  0  0  0  0  0  0  0
    4.3315    4.9396    0.0000 C   0  0  0  0  0  0  0  0  0  0  0  0
    4.1219    6.4249    0.0000 F   0  0  0  0  0  0  0  0  0  0  0  0
    3.1501    4.0154    0.0000 C   0  0  0  0  0  0  0  0  0  0  0  0
    3.3597    2.5301    0.0000 C   0  0  0  0  0  0  0  0  0  0  0  0
    3.7791   -0.4404    0.0000 C   0  0  0  0  0  0  0  0  0  0  0  0
    3.9887   -1.9257    0.0000 C   0  0  0  0  0  0  0  0  0  0  0  0
    3.0252   -3.0753    0.0000 N   0  0  0  0  0  0  0  0  0  0  0  0
    1.5288   -2.9716    0.0000 C   0  0  0  0  0  0  0  0  0  0  0  0
    0.8705   -1.6238    0.0000 C   0  0  0  0  0  0  0  0  0  0  0  0
   -0.6260   -1.5201    0.0000 C   0  0  0  0  0  0  0  0  0  0  0  0
   -1.2843   -0.1723    0.0000 C   0  0  0  0  0  0  0  0  0  0  0  0
   -2.7807   -0.0686    0.0000 N   0  0  0  0  0  0  0  0  0  0  0  0
   -3.4391    1.2792    0.0000 C   0  0  0  0  0  0  0  0  0  0  0  0
   -4.9355    1.3830    0.0000 C   0  0  0  0  0  0  0  0  0  0  0  0
   -5.7736    0.1389    0.0000 N   0  0  0  0  0  0  0  0  0  0  0  0
   -7.2700    0.2426    0.0000 C   0  0  0  0  0  0  0  0  0  0  0  0
   -7.9283    1.5904    0.0000 C   0  0  0  0  0  0  0  0  0  0  0  0
   -9.4247    1.6941    0.0000 C   0  0  0  0  0  0  0  0  0  0  0  0
  -10.2628    0.4501    0.0000 C   0  0  0  0  0  0  0  0  0  0  0  0
   -9.6044   -0.8977    0.0000 C   0  0  0  0  0  0  0  0  0  0  0  0
   -8.1080   -1.0014    0.0000 C   0  0  0  0  0  0  0  0  0  0  0  0
   -5.1152   -1.2089    0.0000 C   0  0  0  0  0  0  0  0  0  0  0  0
   -3.6188   -1.3126    0.0000 C   0  0  0  0  0  0  0  0  0  0  0  0
  1  2  2  0
  2  3  1  0
  3  4  1  0
  4  5  2  0
  5  6  1  0
  6  7  2  0
  7  8  1  0
  8  9  2  0
  9 10  1  0
 10 11  2  0
 11 12  1  0
 11 13  1  0
 13 14  2  0
  7 15  1  0
 15 16  2  0
 16 17  1  0
 17 18  1  0
 18 19  1  0
 19 20  1  0
 20 21  1  0
 21 22  1  0
 22 23  1  0
 23 24  1  0
 24 25  1  0
 25 26  1  0
 26 27  1  0
 27 28  1  0
 28 29  1  0
 29 30  1  0
 30 31  1  0
 25 32  1  0
 32 33  1  0
 17  2  1  0
 33 22  1  0
 16  4  1  0
 31 26  1  0
 14  8  1  0
M  END
>  <Ki>  (7) 
0.0061

>  <database>  (7) 
SRSLDB

$$$$

     RDKit          2D

 35 38  0  0  0  0  0  0  0  0999 V2000
  -12.3447    0.2839    0.0000 C   0  0  0  0  0  0  0  0  0  0  0  0
  -10.8992   -0.1165    0.0000 O   0  0  0  0  0  0  0  0  0  0  0  0
   -9.8296    0.9353    0.0000 C   0  0  0  0  0  0  0  0  0  0  0  0
  -10.2057    2.3874    0.0000 C   0  0  0  0  0  0  0  0  0  0  0  0
   -9.1362    3.4391    0.0000 C   0  0  0  0  0  0  0  0  0  0  0  0
   -7.6906    3.0387    0.0000 C   0  0  0  0  0  0  0  0  0  0  0  0
   -7.3145    1.5866    0.0000 C   0  0  0  0  0  0  0  0  0  0  0  0
   -8.3841    0.5349    0.0000 C   0  0  0  0  0  0  0  0  0  0  0  0
   -8.0080   -0.9172    0.0000 C   0  0  0  0  0  0  0  0  0  0  0  0
   -6.5624   -1.3176    0.0000 N   0  0  0  0  0  0  0  0  0  0  0  0
   -5.3888   -0.3834    0.0000 C   0  0  0  0  0  0  0  0  0  0  0  0
   -4.1377   -1.2109    0.0000 C   0  0  0  0  0  0  0  0  0  0  0  0
   -2.7329   -0.6851    0.0000 C   0  0  0  0  0  0  0  0  0  0  0  0
   -2.4858    0.7944    0.0000 O   0  0  0  0  0  0  0  0  0  0  0  0
   -1.5751   -1.6389    0.0000 N   0  0  0  0  0  0  0  0  0  0  0  0
   -0.1703   -1.1131    0.0000 C   0  0  0  0  0  0  0  0  0  0  0  0
    0.9875   -2.0668    0.0000 C   0  0  0  0  0  0  0  0  0  0  0  0
    2.3923   -1.5410    0.0000 C   0  0  0  0  0  0  0  0  0  0  0  0
    3.5500   -2.4948    0.0000 C   0  0  0  0  0  0  0  0  0  0  0  0
    4.9549   -1.9690    0.0000 N   0  0  0  0  0  0  0  0  0  0  0  0
    6.1126   -2.9227    0.0000 C   0  0  0  0  0  0  0  0  0  0  0  0
    7.5175   -2.3969    0.0000 C   0  0  0  0  0  0  0  0  0  0  0  0
    7.7645   -0.9174    0.0000 C   0  0  0  0  0  0  0  0  0  0  0  0
    9.1694   -0.3916    0.0000 C   0  0  0  0  0  0  0  0  0  0  0  0
    9.4165    1.0879    0.0000 C   0  0  0  0  0  0  0  0  0  0  0  0
   10.8213    1.6136    0.0000 O   0  0  0  0  0  0  0  0  0  0  0  0
   11.9790    0.6599    0.0000 C   0  0  0  0  0  0  0  0  0  0  0  0
    8.2587    2.0416    0.0000 C   0  0  0  0  0  0  0  0  0  0  0  0
    8.5058    3.5211    0.0000 O   0  0  0  0  0  0  0  0  0  0  0  0
    7.3480    4.4748    0.0000 C   0  0  0  0  0  0  0  0  0  0  0  0
    6.8539    1.5158    0.0000 C   0  0  0  0  0  0  0  0  0  0  0  0
    6.6068    0.0363    0.0000 C   0  0  0  0  0  0  0  0  0  0  0  0
    5.2020   -0.4895    0.0000 C   0  0  0  0  0  0  0  0  0  0  0  0
   -4.5381   -2.6565    0.0000 N   0  0  0  0  0  0  0  0  0  0  0  0
   -6.0367   -2.7224    0.0000 N   0  0  0  0  0  0  0  0  0  0  0  0
  1  2  1  0
  2  3  1  0
  3  4  2  0
  4  5  1  0
  5  6  2  0
  6  7  1  0
  7  8  2  0
  8  9  1  0
  9 10  1  0
 10 11  1  0
 11 12  2  0
 12 13  1  0
 13 14  2  0
 13 15  1  0
 15 16  1  0
 16 17  1  0
 17 18  1  0
 18 19  1  0
 19 20  1  0
 20 21  1  0
 21 22  1  0
 22 23  1  0
 23 24  2  0
 24 25  1  0
 25 26  1  0
 26 27  1  0
 25 28  2  0
 28 29  1  0
 29 30  1  0
 28 31  1  0
 31 32  2  0
 32 33  1  0
 12 34  1  0
 34 35  2  0
  8  3  1  0
 35 10  1  0
 33 20  1  0
 32 23  1  0
M  END
>  <ChemBL_ID>  (8) 
CHEMBL3262521

>  <Ki>  (8) 
9.69999999999999

>  <database>  (8) 
SRSLDB

$$$$

     RDKit          2D

 36 39  0  0  0  0  0  0  0  0999 V2000
  -12.3749    1.7078    0.0000 C   0  0  0  0  0  0  0  0  0  0  0  0
  -11.6271    0.4075    0.0000 O   0  0  0  0  0  0  0  0  0  0  0  0
  -10.1271    0.4049    0.0000 C   0  0  0  0  0  0  0  0  0  0  0  0
   -9.3749    1.7027    0.0000 C   0  0  0  0  0  0  0  0  0  0  0  0
   -7.8749    1.7001    0.0000 C   0  0  0  0  0  0  0  0  0  0  0  0
   -7.1271    0.3998    0.0000 C   0  0  0  0  0  0  0  0  0  0  0  0
   -7.8793   -0.8980    0.0000 C   0  0  0  0  0  0  0  0  0  0  0  0
   -9.3793   -0.8954    0.0000 C   0  0  0  0  0  0  0  0  0  0  0  0
  -10.1315   -2.1932    0.0000 O   0  0  0  0  0  0  0  0  0  0  0  0
   -9.3837   -3.4935    0.0000 C   0  0  0  0  0  0  0  0  0  0  0  0
   -5.6271    0.3973    0.0000 C   0  0  0  0  0  0  0  0  0  0  0  0
   -4.8749    1.6950    0.0000 N   0  0  0  0  0  0  0  0  0  0  0  0
   -3.3749    1.6925    0.0000 C   0  0  0  0  0  0  0  0  0  0  0  0
   -2.6271    0.3921    0.0000 C   0  0  0  0  0  0  0  0  0  0  0  0
   -1.1271    0.3896    0.0000 C   0  0  0  0  0  0  0  0  0  0  0  0
   -0.3793   -0.9107    0.0000 C   0  0  0  0  0  0  0  0  0  0  0  0
    1.1207   -0.9133    0.0000 N   0  0  0  0  0  0  0  0  0  0  0  0
    1.8685   -2.2136    0.0000 C   0  0  0  0  0  0  0  0  0  0  0  0
    1.1163   -3.5113    0.0000 O   0  0  0  0  0  0  0  0  0  0  0  0
    3.3685   -2.2161    0.0000 C   0  0  0  0  0  0  0  0  0  0  0  0
    4.2522   -1.0041    0.0000 C   0  0  0  0  0  0  0  0  0  0  0  0
    5.6780   -1.4701    0.0000 N   0  0  0  0  0  0  0  0  0  0  0  0
    6.8930   -0.5905    0.0000 C   0  0  0  0  0  0  0  0  0  0  0  0
    8.2623   -1.2029    0.0000 C   0  0  0  0  0  0  0  0  0  0  0  0
    9.4773   -0.3233    0.0000 C   0  0  0  0  0  0  0  0  0  0  0  0
    9.3231    1.1688    0.0000 C   0  0  0  0  0  0  0  0  0  0  0  0
   10.5381    2.0484    0.0000 O   0  0  0  0  0  0  0  0  0  0  0  0
   11.9074    1.4359    0.0000 C   0  0  0  0  0  0  0  0  0  0  0  0
   13.1224    2.3156    0.0000 C   0  0  0  0  0  0  0  0  0  0  0  0
   14.4917    1.7031    0.0000 F   0  0  0  0  0  0  0  0  0  0  0  0
    7.9538    1.7812    0.0000 C   0  0  0  0  0  0  0  0  0  0  0  0
    6.7388    0.9016    0.0000 C   0  0  0  0  0  0  0  0  0  0  0  0
    5.6755   -2.9701    0.0000 N   0  0  0  0  0  0  0  0  0  0  0  0
    4.2481   -3.4312    0.0000 N   0  0  0  0  0  0  0  0  0  0  0  0
   -5.6227    2.9953    0.0000 C   0  0  0  0  0  0  0  0  0  0  0  0
   -7.1227    2.9979    0.0000 C   0  0  0  0  0  0  0  0  0  0  0  0
  1  2  1  0
  2  3  1  0
  3  4  2  0
  4  5  1  0
  5  6  2  0
  6  7  1  0
  7  8  2  0
  8  9  1  0
  9 10  1  0
  6 11  1  0
 11 12  1  0
 12 13  1  0
 13 14  1  0
 14 15  1  0
 15 16  1  0
 16 17  1  0
 17 18  1  0
 18 19  2  0
 18 20  1  0
 20 21  2  0
 21 22  1  0
 22 23  1  0
 23 24  2  0
 24 25  1  0
 25 26  2  0
 26 27  1  0
 27 28  1  0
 28 29  1  0
 29 30  1  0
 26 31  1  0
 31 32  2  0
 22 33  1  0
 33 34  2  0
 12 35  1  0
 35 36  1  0
  8  3  1  0
 34 20  1  0
 36  5  1  0
 32 23  1  0
M  END
>  <ChemBL_ID>  (9) 
CHEMBL3262516

>  <Ki>  (9) 
21.9

>  <database>  (9) 
SRSLDB

$$$$

     RDKit          2D

 27 29  0  0  0  0  0  0  0  0999 V2000
   -9.1808    0.4449    0.0000 C   0  0  0  0  0  0  0  0  0  0  0  0
   -8.2058   -0.6950    0.0000 O   0  0  0  0  0  0  0  0  0  0  0  0
   -6.7311   -0.4206    0.0000 C   0  0  0  0  0  0  0  0  0  0  0  0
   -6.2314    0.9937    0.0000 C   0  0  0  0  0  0  0  0  0  0  0  0
   -4.7567    1.2681    0.0000 C   0  0  0  0  0  0  0  0  0  0  0  0
   -3.7817    0.1282    0.0000 C   0  0  0  0  0  0  0  0  0  0  0  0
   -4.2814   -1.2861    0.0000 C   0  0  0  0  0  0  0  0  0  0  0  0
   -5.7561   -1.5605    0.0000 C   0  0  0  0  0  0  0  0  0  0  0  0
   -6.2558   -2.9748    0.0000 O   0  0  0  0  0  0  0  0  0  0  0  0
   -5.2808   -4.1147    0.0000 C   0  0  0  0  0  0  0  0  0  0  0  0
   -2.3070    0.4026    0.0000 C   0  0  0  0  0  0  0  0  0  0  0  0
   -1.8074    1.8170    0.0000 N   0  0  0  0  0  0  0  0  0  0  0  0
   -0.3327    2.0914    0.0000 C   0  0  0  0  0  0  0  0  0  0  0  0
    0.6423    0.9515    0.0000 C   0  0  0  0  0  0  0  0  0  0  0  0
    2.1170    1.2259    0.0000 C   0  0  0  0  0  0  0  0  0  0  0  0
    3.0920    0.0860    0.0000 C   0  0  0  0  0  0  0  0  0  0  0  0
    4.5667    0.3604    0.0000 N   0  0  0  0  0  0  0  0  0  0  0  0
    5.5417   -0.7795    0.0000 C   0  0  0  0  0  0  0  0  0  0  0  0
    5.0420   -2.1938    0.0000 O   0  0  0  0  0  0  0  0  0  0  0  0
    7.0164   -0.5051    0.0000 C   0  0  0  0  0  0  0  0  0  0  0  0
    7.9914   -1.6450    0.0000 C   0  0  0  0  0  0  0  0  0  0  0  0
    9.4661   -1.3706    0.0000 C   0  0  0  0  0  0  0  0  0  0  0  0
    9.9657    0.0438    0.0000 C   0  0  0  0  0  0  0  0  0  0  0  0
    8.9907    1.1837    0.0000 C   0  0  0  0  0  0  0  0  0  0  0  0
    7.5161    0.9092    0.0000 C   0  0  0  0  0  0  0  0  0  0  0  0
   -2.7823    2.9569    0.0000 C   0  0  0  0  0  0  0  0  0  0  0  0
   -4.2570    2.6825    0.0000 C   0  0  0  0  0  0  0  0  0  0  0  0
  1  2  1  0
  2  3  1  0
  3  4  2  0
  4  5  1  0
  5  6  2  0
  6  7  1  0
  7  8  2  0
  8  9  1  0
  9 10  1  0
  6 11  1  0
 11 12  1  0
 12 13  1  0
 13 14  1  0
 14 15  1  0
 15 16  1  0
 16 17  1  0
 17 18  1  0
 18 19  2  0
 18 20  1  0
 20 21  2  0
 21 22  1  0
 22 23  2  0
 23 24  1  0
 24 25  2  0
 12 26  1  0
 26 27  1  0
  8  3  1  0
 25 20  1  0
 27  5  1  0
M  END
>  <ChemBL_ID>  (10) 
CHEMBL1927699

>  <Ki>  (10) 
5290.0

>  <database>  (10) 
SRSLDB

$$$$

     RDKit          2D

 25 28  0  0  0  0  0  0  0  0999 V2000
   -5.7806    3.9754    0.0000 F   0  0  0  0  0  0  0  0  0  0  0  0
   -4.9020    2.7597    0.0000 C   0  0  0  0  0  0  0  0  0  0  0  0
   -3.4098    2.9127    0.0000 C   0  0  0  0  0  0  0  0  0  0  0  0
   -2.5312    1.6970    0.0000 C   0  0  0  0  0  0  0  0  0  0  0  0
   -3.1448    0.3282    0.0000 C   0  0  0  0  0  0  0  0  0  0  0  0
   -2.2661   -0.8876    0.0000 C   0  0  0  0  0  0  0  0  0  0  0  0
   -1.1489    0.1133    0.0000 N   0  0  0  0  0  0  0  0  0  0  0  0
    0.2765   -0.3538    0.0000 C   0  0  0  0  0  0  0  0  0  0  0  0
    1.3938    0.6471    0.0000 C   0  0  0  0  0  0  0  0  0  0  0  0
    2.8192    0.1800    0.0000 C   0  0  0  0  0  0  0  0  0  0  0  0
    3.9364    1.1809    0.0000 O   0  0  0  0  0  0  0  0  0  0  0  0
    5.3618    0.7138    0.0000 C   0  0  0  0  0  0  0  0  0  0  0  0
    5.6700   -0.7542    0.0000 C   0  0  0  0  0  0  0  0  0  0  0  0
    7.0954   -1.2214    0.0000 C   0  0  0  0  0  0  0  0  0  0  0  0
    8.2126   -0.2205    0.0000 C   0  0  0  0  0  0  0  0  0  0  0  0
    7.9045    1.2475    0.0000 C   0  0  0  0  0  0  0  0  0  0  0  0
    6.4791    1.7146    0.0000 O   0  0  0  0  0  0  0  0  0  0  0  0
   -1.1540   -1.8941    0.0000 C   0  0  0  0  0  0  0  0  0  0  0  0
   -1.7675   -3.2628    0.0000 C   0  0  0  0  0  0  0  0  0  0  0  0
   -3.0684   -4.0096    0.0000 C   0  0  0  0  0  0  0  0  0  0  0  0
   -4.1806   -3.0031    0.0000 C   0  0  0  0  0  0  0  0  0  0  0  0
   -3.5671   -1.6343    0.0000 C   0  0  0  0  0  0  0  0  0  0  0  0
   -2.0757   -1.7948    0.0000 C   0  0  0  0  0  0  0  0  0  0  0  0
   -4.6369    0.1751    0.0000 C   0  0  0  0  0  0  0  0  0  0  0  0
   -5.5156    1.3909    0.0000 C   0  0  0  0  0  0  0  0  0  0  0  0
  1  2  1  0
  2  3  2  0
  3  4  1  0
  4  5  2  0
  5  6  1  0
  6  7  1  0
  7  8  1  0
  8  9  1  0
  9 10  1  0
 10 11  1  0
 11 12  1  0
 12 13  1  0
 13 14  1  0
 14 15  1  0
 15 16  1  0
 16 17  1  0
  6 18  1  0
 18 19  1  0
 19 20  1  0
 20 21  1  0
 21 22  1  0
 22 23  1  0
  5 24  1  0
 24 25  2  0
 25  2  1  0
 22  6  1  0
 17 12  1  0
 23 19  1  0
M  END
>  <Ki>  (11) 
5.5

>  <database>  (11) 
SRSLDB

$$$$

     RDKit          2D

 31 33  0  0  0  0  0  0  0  0999 V2000
   10.3603    1.7715    0.0000 C   0  0  0  0  0  0  0  0  0  0  0  0
    8.9175    2.1817    0.0000 O   0  0  0  0  0  0  0  0  0  0  0  0
    7.8409    1.1372    0.0000 C   0  0  0  0  0  0  0  0  0  0  0  0
    6.3981    1.5473    0.0000 C   0  0  0  0  0  0  0  0  0  0  0  0
    5.3215    0.5028    0.0000 C   0  0  0  0  0  0  0  0  0  0  0  0
    5.6877   -0.9518    0.0000 C   0  0  0  0  0  0  0  0  0  0  0  0
    7.1305   -1.3619    0.0000 C   0  0  0  0  0  0  0  0  0  0  0  0
    8.2071   -0.3174    0.0000 C   0  0  0  0  0  0  0  0  0  0  0  0
    9.6500   -0.7275    0.0000 O   0  0  0  0  0  0  0  0  0  0  0  0
   10.0162   -2.1821    0.0000 C   0  0  0  0  0  0  0  0  0  0  0  0
    4.4175   -1.7496    0.0000 C   0  0  0  0  0  0  0  0  0  0  0  0
    3.2662   -0.7881    0.0000 N   0  0  0  0  0  0  0  0  0  0  0  0
    1.8116   -1.1543    0.0000 C   0  0  0  0  0  0  0  0  0  0  0  0
    0.7671   -0.0777    0.0000 C   0  0  0  0  0  0  0  0  0  0  0  0
   -0.6875   -0.4440    0.0000 C   0  0  0  0  0  0  0  0  0  0  0  0
   -1.7320    0.6326    0.0000 C   0  0  0  0  0  0  0  0  0  0  0  0
   -3.1866    0.2664    0.0000 N   0  0  0  0  0  0  0  0  0  0  0  0
   -4.2311    1.3430    0.0000 C   0  0  0  0  0  0  0  0  0  0  0  0
   -3.8209    2.7858    0.0000 O   0  0  0  0  0  0  0  0  0  0  0  0
   -5.6857    0.9768    0.0000 C   0  0  0  0  0  0  0  0  0  0  0  0
   -6.7301    2.0534    0.0000 C   0  0  0  0  0  0  0  0  0  0  0  0
   -8.1847    1.6871    0.0000 C   0  0  0  0  0  0  0  0  0  0  0  0
   -9.2292    2.7637    0.0000 Br  0  0  0  0  0  0  0  0  0  0  0  0
   -8.5949    0.2443    0.0000 C   0  0  0  0  0  0  0  0  0  0  0  0
   -7.5504   -0.8323    0.0000 C   0  0  0  0  0  0  0  0  0  0  0  0
   -7.9605   -2.2752    0.0000 O   0  0  0  0  0  0  0  0  0  0  0  0
   -9.4151   -2.6414    0.0000 C   0  0  0  0  0  0  0  0  0  0  0  0
   -6.0958   -0.4661    0.0000 C   0  0  0  0  0  0  0  0  0  0  0  0
   -5.0513   -1.5427    0.0000 O   0  0  0  0  0  0  0  0  0  0  0  0
   -5.4614   -2.9855    0.0000 C   0  0  0  0  0  0  0  0  0  0  0  0
    3.8249    0.6040    0.0000 C   0  0  0  0  0  0  0  0  0  0  0  0
  1  2  1  0
  2  3  1  0
  3  4  2  0
  4  5  1  0
  5  6  2  0
  6  7  1  0
  7  8  2  0
  8  9  1  0
  9 10  1  0
  6 11  1  0
 11 12  1  0
 12 13  1  0
 13 14  1  0
 14 15  1  0
 15 16  1  0
 16 17  1  0
 17 18  1  0
 18 19  2  0
 18 20  1  0
 20 21  2  0
 21 22  1  0
 22 23  1  0
 22 24  2  0
 24 25  1  0
 25 26  1  0
 26 27  1  0
 25 28  2  0
 28 29  1  0
 29 30  1  0
 12 31  1  0
  8  3  1  0
 28 20  1  0
 31  5  1  0
M  END
>  <ChemBL_ID>  (12) 
CHEMBL1682080

>  <Ki>  (12) 
0.82

>  <database>  (12) 
SRSLDB

$$$$

     RDKit          2D

 32 34  0  0  0  0  0  0  0  0999 V2000
  -10.3064    0.6396    0.0000 C   0  0  0  0  0  0  0  0  0  0  0  0
   -9.4017   -0.5569    0.0000 O   0  0  0  0  0  0  0  0  0  0  0  0
   -7.9132   -0.3716    0.0000 C   0  0  0  0  0  0  0  0  0  0  0  0
   -7.3294    1.0102    0.0000 C   0  0  0  0  0  0  0  0  0  0  0  0
   -5.8409    1.1955    0.0000 C   0  0  0  0  0  0  0  0  0  0  0  0
   -4.9361   -0.0009    0.0000 C   0  0  0  0  0  0  0  0  0  0  0  0
   -5.5199   -1.3827    0.0000 C   0  0  0  0  0  0  0  0  0  0  0  0
   -7.0084   -1.5680    0.0000 C   0  0  0  0  0  0  0  0  0  0  0  0
   -7.5922   -2.9497    0.0000 O   0  0  0  0  0  0  0  0  0  0  0  0
   -6.6874   -4.1462    0.0000 C   0  0  0  0  0  0  0  0  0  0  0  0
   -3.4476    0.1844    0.0000 C   0  0  0  0  0  0  0  0  0  0  0  0
   -2.8639    1.5661    0.0000 N   0  0  0  0  0  0  0  0  0  0  0  0
   -1.3754    1.7515    0.0000 C   0  0  0  0  0  0  0  0  0  0  0  0
   -0.4706    0.5550    0.0000 C   0  0  0  0  0  0  0  0  0  0  0  0
    1.0179    0.7404    0.0000 C   0  0  0  0  0  0  0  0  0  0  0  0
    1.9226   -0.4561    0.0000 C   0  0  0  0  0  0  0  0  0  0  0  0
    3.4111   -0.2708    0.0000 N   0  0  0  0  0  0  0  0  0  0  0  0
    4.3159   -1.4672    0.0000 C   0  0  0  0  0  0  0  0  0  0  0  0
    3.7321   -2.8489    0.0000 O   0  0  0  0  0  0  0  0  0  0  0  0
    5.8044   -1.2819    0.0000 C   0  0  0  0  0  0  0  0  0  0  0  0
    6.7091   -2.4783    0.0000 C   0  0  0  0  0  0  0  0  0  0  0  0
    8.1977   -2.2930    0.0000 C   0  0  0  0  0  0  0  0  0  0  0  0
    9.1024   -3.4894    0.0000 Br  0  0  0  0  0  0  0  0  0  0  0  0
    8.7814   -0.9112    0.0000 C   0  0  0  0  0  0  0  0  0  0  0  0
    7.8767    0.2852    0.0000 C   0  0  0  0  0  0  0  0  0  0  0  0
    6.3882    0.0999    0.0000 C   0  0  0  0  0  0  0  0  0  0  0  0
    5.4834    1.2963    0.0000 O   0  0  0  0  0  0  0  0  0  0  0  0
    6.0672    2.6781    0.0000 C   0  0  0  0  0  0  0  0  0  0  0  0
    5.1624    3.8745    0.0000 C   0  0  0  0  0  0  0  0  0  0  0  0
    5.7462    5.2562    0.0000 F   0  0  0  0  0  0  0  0  0  0  0  0
   -3.7686    2.7626    0.0000 C   0  0  0  0  0  0  0  0  0  0  0  0
   -5.2571    2.5773    0.0000 C   0  0  0  0  0  0  0  0  0  0  0  0
  1  2  1  0
  2  3  1  0
  3  4  2  0
  4  5  1  0
  5  6  2  0
  6  7  1  0
  7  8  2  0
  8  9  1  0
  9 10  1  0
  6 11  1  0
 11 12  1  0
 12 13  1  0
 13 14  1  0
 14 15  1  0
 15 16  1  0
 16 17  1  0
 17 18  1  0
 18 19  2  0
 18 20  1  0
 20 21  2  0
 21 22  1  0
 22 23  1  0
 22 24  2  0
 24 25  1  0
 25 26  2  0
 26 27  1  0
 27 28  1  0
 28 29  1  0
 29 30  1  0
 12 31  1  0
 31 32  1  0
  8  3  1  0
 26 20  1  0
 32  5  1  0
M  END
>  <ChemBL_ID>  (13) 
CHEMBL226540

>  <Ki>  (13) 
0.65

>  <database>  (13) 
SRSLDB

$$$$

     RDKit          2D

 32 34  0  0  0  0  0  0  0  0999 V2000
  -10.3064    0.6396    0.0000 C   0  0  0  0  0  0  0  0  0  0  0  0
   -9.4017   -0.5569    0.0000 O   0  0  0  0  0  0  0  0  0  0  0  0
   -7.9132   -0.3716    0.0000 C   0  0  0  0  0  0  0  0  0  0  0  0
   -7.3294    1.0102    0.0000 C   0  0  0  0  0  0  0  0  0  0  0  0
   -5.8409    1.1955    0.0000 C   0  0  0  0  0  0  0  0  0  0  0  0
   -4.9361   -0.0009    0.0000 C   0  0  0  0  0  0  0  0  0  0  0  0
   -5.5199   -1.3827    0.0000 C   0  0  0  0  0  0  0  0  0  0  0  0
   -7.0084   -1.5680    0.0000 C   0  0  0  0  0  0  0  0  0  0  0  0
   -7.5922   -2.9497    0.0000 O   0  0  0  0  0  0  0  0  0  0  0  0
   -6.6874   -4.1462    0.0000 C   0  0  0  0  0  0  0  0  0  0  0  0
   -3.4476    0.1844    0.0000 C   0  0  0  0  0  0  0  0  0  0  0  0
   -2.8639    1.5661    0.0000 N   0  0  0  0  0  0  0  0  0  0  0  0
   -1.3754    1.7515    0.0000 C   0  0  0  0  0  0  0  0  0  0  0  0
   -0.4706    0.5550    0.0000 C   0  0  0  0  0  0  0  0  0  0  0  0
    1.0179    0.7404    0.0000 C   0  0  0  0  0  0  0  0  0  0  0  0
    1.9226   -0.4561    0.0000 C   0  0  0  0  0  0  0  0  0  0  0  0
    3.4111   -0.2708    0.0000 N   0  0  0  0  0  0  0  0  0  0  0  0
    4.3159   -1.4672    0.0000 C   0  0  0  0  0  0  0  0  0  0  0  0
    3.7321   -2.8489    0.0000 O   0  0  0  0  0  0  0  0  0  0  0  0
    5.8044   -1.2819    0.0000 C   0  0  0  0  0  0  0  0  0  0  0  0
    6.7091   -2.4783    0.0000 C   0  0  0  0  0  0  0  0  0  0  0  0
    8.1977   -2.2930    0.0000 C   0  0  0  0  0  0  0  0  0  0  0  0
    9.1024   -3.4894    0.0000 I   0  0  0  0  0  0  0  0  0  0  0  0
    8.7814   -0.9112    0.0000 C   0  0  0  0  0  0  0  0  0  0  0  0
    7.8767    0.2852    0.0000 C   0  0  0  0  0  0  0  0  0  0  0  0
    6.3882    0.0999    0.0000 C   0  0  0  0  0  0  0  0  0  0  0  0
    5.4834    1.2963    0.0000 O   0  0  0  0  0  0  0  0  0  0  0  0
    6.0672    2.6781    0.0000 C   0  0  0  0  0  0  0  0  0  0  0  0
    5.1624    3.8745    0.0000 C   0  0  0  0  0  0  0  0  0  0  0  0
    5.7462    5.2562    0.0000 F   0  0  0  0  0  0  0  0  0  0  0  0
   -3.7686    2.7626    0.0000 C   0  0  0  0  0  0  0  0  0  0  0  0
   -5.2571    2.5773    0.0000 C   0  0  0  0  0  0  0  0  0  0  0  0
  1  2  1  0
  2  3  1  0
  3  4  2  0
  4  5  1  0
  5  6  2  0
  6  7  1  0
  7  8  2  0
  8  9  1  0
  9 10  1  0
  6 11  1  0
 11 12  1  0
 12 13  1  0
 13 14  1  0
 14 15  1  0
 15 16  1  0
 16 17  1  0
 17 18  1  0
 18 19  2  0
 18 20  1  0
 20 21  2  0
 21 22  1  0
 22 23  1  0
 22 24  2  0
 24 25  1  0
 25 26  2  0
 26 27  1  0
 27 28  1  0
 28 29  1  0
 29 30  1  0
 12 31  1  0
 31 32  1  0
  8  3  1  0
 26 20  1  0
 32  5  1  0
M  END
>  <ChemBL_ID>  (14) 
CHEMBL387741

>  <Ki>  (14) 
1.06

>  <database>  (14) 
SRSLDB

$$$$

     RDKit          2D

 35 38  0  0  0  0  0  0  0  0999 V2000
  -12.1877    3.4885    0.0000 C   0  0  0  0  0  0  0  0  0  0  0  0
  -11.7455    2.0552    0.0000 O   0  0  0  0  0  0  0  0  0  0  0  0
  -10.2831    1.7215    0.0000 C   0  0  0  0  0  0  0  0  0  0  0  0
   -9.2629    2.8212    0.0000 C   0  0  0  0  0  0  0  0  0  0  0  0
   -7.8005    2.4876    0.0000 C   0  0  0  0  0  0  0  0  0  0  0  0
   -7.3582    1.0542    0.0000 C   0  0  0  0  0  0  0  0  0  0  0  0
   -8.3784   -0.0454    0.0000 C   0  0  0  0  0  0  0  0  0  0  0  0
   -7.9361   -1.4788    0.0000 C   0  0  0  0  0  0  0  0  0  0  0  0
   -6.4737   -1.8124    0.0000 N   0  0  0  0  0  0  0  0  0  0  0  0
   -5.3442   -0.8254    0.0000 C   0  0  0  0  0  0  0  0  0  0  0  0
   -4.0564   -1.5946    0.0000 C   0  0  0  0  0  0  0  0  0  0  0  0
   -2.6772   -1.0050    0.0000 C   0  0  0  0  0  0  0  0  0  0  0  0
   -2.4982    0.4843    0.0000 O   0  0  0  0  0  0  0  0  0  0  0  0
   -1.4769   -1.9046    0.0000 N   0  0  0  0  0  0  0  0  0  0  0  0
   -0.0977   -1.3149    0.0000 C   0  0  0  0  0  0  0  0  0  0  0  0
    1.1026   -2.2146    0.0000 C   0  0  0  0  0  0  0  0  0  0  0  0
    2.4818   -1.6249    0.0000 C   0  0  0  0  0  0  0  0  0  0  0  0
    3.6821   -2.5245    0.0000 C   0  0  0  0  0  0  0  0  0  0  0  0
    5.0614   -1.9349    0.0000 N   0  0  0  0  0  0  0  0  0  0  0  0
    6.2616   -2.8345    0.0000 C   0  0  0  0  0  0  0  0  0  0  0  0
    7.6409   -2.2449    0.0000 C   0  0  0  0  0  0  0  0  0  0  0  0
    7.8198   -0.7556    0.0000 C   0  0  0  0  0  0  0  0  0  0  0  0
    9.1991   -0.1659    0.0000 C   0  0  0  0  0  0  0  0  0  0  0  0
    9.3780    1.3234    0.0000 C   0  0  0  0  0  0  0  0  0  0  0  0
   10.7573    1.9130    0.0000 O   0  0  0  0  0  0  0  0  0  0  0  0
   11.9576    1.0134    0.0000 C   0  0  0  0  0  0  0  0  0  0  0  0
    8.1778    2.2230    0.0000 C   0  0  0  0  0  0  0  0  0  0  0  0
    8.3567    3.7123    0.0000 O   0  0  0  0  0  0  0  0  0  0  0  0
    7.1564    4.6119    0.0000 C   0  0  0  0  0  0  0  0  0  0  0  0
    6.7985    1.6333    0.0000 C   0  0  0  0  0  0  0  0  0  0  0  0
    6.6196    0.1441    0.0000 C   0  0  0  0  0  0  0  0  0  0  0  0
    5.2403   -0.4456    0.0000 C   0  0  0  0  0  0  0  0  0  0  0  0
   -4.3901   -3.0571    0.0000 N   0  0  0  0  0  0  0  0  0  0  0  0
   -5.8840   -3.1916    0.0000 N   0  0  0  0  0  0  0  0  0  0  0  0
   -9.8408    0.2882    0.0000 C   0  0  0  0  0  0  0  0  0  0  0  0
  1  2  1  0
  2  3  1  0
  3  4  2  0
  4  5  1  0
  5  6  2  0
  6  7  1  0
  7  8  1  0
  8  9  1  0
  9 10  1  0
 10 11  2  0
 11 12  1  0
 12 13  2  0
 12 14  1  0
 14 15  1  0
 15 16  1  0
 16 17  1  0
 17 18  1  0
 18 19  1  0
 19 20  1  0
 20 21  1  0
 21 22  1  0
 22 23  2  0
 23 24  1  0
 24 25  1  0
 25 26  1  0
 24 27  2  0
 27 28  1  0
 28 29  1  0
 27 30  1  0
 30 31  2  0
 31 32  1  0
 11 33  1  0
 33 34  2  0
  7 35  2  0
 35  3  1  0
 34  9  1  0
 32 19  1  0
 31 22  1  0
M  END
>  <ChemBL_ID>  (15) 
CHEMBL3262522

>  <Ki>  (15) 
10.7

>  <database>  (15) 
SRSLDB

$$$$

     RDKit          2D

 34 38  0  0  0  0  0  0  0  0999 V2000
  -10.7141    1.4773    0.0000 C   0  0  0  0  0  0  0  0  0  0  0  0
   -9.9449    0.1895    0.0000 O   0  0  0  0  0  0  0  0  0  0  0  0
   -8.4450    0.2118    0.0000 C   0  0  0  0  0  0  0  0  0  0  0  0
   -7.7144    1.5219    0.0000 C   0  0  0  0  0  0  0  0  0  0  0  0
   -6.2146    1.5442    0.0000 C   0  0  0  0  0  0  0  0  0  0  0  0
   -5.4454    0.2564    0.0000 C   0  0  0  0  0  0  0  0  0  0  0  0
   -6.1760   -1.0536    0.0000 C   0  0  0  0  0  0  0  0  0  0  0  0
   -7.6758   -1.0759    0.0000 C   0  0  0  0  0  0  0  0  0  0  0  0
   -8.4064   -2.3860    0.0000 O   0  0  0  0  0  0  0  0  0  0  0  0
   -7.6372   -3.6737    0.0000 C   0  0  0  0  0  0  0  0  0  0  0  0
   -3.9455    0.2787    0.0000 C   0  0  0  0  0  0  0  0  0  0  0  0
   -3.2149    1.5887    0.0000 N   0  0  0  0  0  0  0  0  0  0  0  0
   -1.7151    1.6110    0.0000 C   0  0  0  0  0  0  0  0  0  0  0  0
   -0.9459    0.3233    0.0000 C   0  0  0  0  0  0  0  0  0  0  0  0
    0.5540    0.3456    0.0000 C   0  0  0  0  0  0  0  0  0  0  0  0
    1.3232   -0.9422    0.0000 C   0  0  0  0  0  0  0  0  0  0  0  0
    2.8230   -0.9199    0.0000 N   0  0  0  0  0  0  0  0  0  0  0  0
    3.6866    0.3066    0.0000 C   0  0  0  0  0  0  0  0  0  0  0  0
    5.1199   -0.1357    0.0000 C   0  0  0  0  0  0  0  0  0  0  0  0
    6.3202    0.7640    0.0000 C   0  0  0  0  0  0  0  0  0  0  0  0
    7.6994    0.1743    0.0000 C   0  0  0  0  0  0  0  0  0  0  0  0
    8.8997    1.0739    0.0000 C   0  0  0  0  0  0  0  0  0  0  0  0
    8.7208    2.5632    0.0000 C   0  0  0  0  0  0  0  0  0  0  0  0
    9.9210    3.4628    0.0000 F   0  0  0  0  0  0  0  0  0  0  0  0
    7.3415    3.1529    0.0000 C   0  0  0  0  0  0  0  0  0  0  0  0
    6.1412    2.2532    0.0000 C   0  0  0  0  0  0  0  0  0  0  0  0
    5.1422   -1.6355    0.0000 C   0  0  0  0  0  0  0  0  0  0  0  0
    6.2717   -2.6225    0.0000 C   0  0  0  0  0  0  0  0  0  0  0  0
    5.9817   -4.0942    0.0000 C   0  0  0  0  0  0  0  0  0  0  0  0
    4.5621   -4.5789    0.0000 C   0  0  0  0  0  0  0  0  0  0  0  0
    3.4326   -3.5919    0.0000 C   0  0  0  0  0  0  0  0  0  0  0  0
    3.7226   -2.1202    0.0000 C   0  0  0  0  0  0  0  0  0  0  0  0
   -3.9841    2.8765    0.0000 C   0  0  0  0  0  0  0  0  0  0  0  0
   -5.4840    2.8542    0.0000 C   0  0  0  0  0  0  0  0  0  0  0  0
  1  2  1  0
  2  3  1  0
  3  4  2  0
  4  5  1  0
  5  6  2  0
  6  7  1  0
  7  8  2  0
  8  9  1  0
  9 10  1  0
  6 11  1  0
 11 12  1  0
 12 13  1  0
 13 14  1  0
 14 15  1  0
 15 16  1  0
 16 17  1  0
 17 18  1  0
 18 19  2  0
 19 20  1  0
 20 21  2  0
 21 22  1  0
 22 23  2  0
 23 24  1  0
 23 25  1  0
 25 26  2  0
 19 27  1  0
 27 28  2  0
 28 29  1  0
 29 30  2  0
 30 31  1  0
 31 32  2  0
 12 33  1  0
 33 34  1  0
  8  3  1  0
 32 17  1  0
 34  5  1  0
 26 20  1  0
 32 27  1  0
M  END
>  <ChemBL_ID>  (16) 
CHEMBL1831166

>  <Ki>  (16) 
4.37

>  <database>  (16) 
SRSLDB

$$$$

     RDKit          2D

 23 26  0  0  0  0  0  0  0  0999 V2000
   -3.5938    3.7082    0.0000 C   0  0  0  0  0  0  0  0  0  0  0  0
   -2.1232    3.4129    0.0000 C   0  0  0  0  0  0  0  0  0  0  0  0
   -1.6435    1.9917    0.0000 C   0  0  0  0  0  0  0  0  0  0  0  0
   -2.6345    0.8657    0.0000 C   0  0  0  0  0  0  0  0  0  0  0  0
   -2.1549   -0.5556    0.0000 C   0  0  0  0  0  0  0  0  0  0  0  0
   -0.7916    0.0700    0.0000 N   0  0  0  0  0  0  0  0  0  0  0  0
    0.4319   -0.7979    0.0000 C   0  0  0  0  0  0  0  0  0  0  0  0
    1.7952   -0.1723    0.0000 C   0  0  0  0  0  0  0  0  0  0  0  0
    3.0186   -1.0402    0.0000 C   0  0  0  0  0  0  0  0  0  0  0  0
    4.3819   -0.4146    0.0000 N   0  0  0  0  0  0  0  0  0  0  0  0
    5.6054   -1.2825    0.0000 C   0  0  0  0  0  0  0  0  0  0  0  0
    6.9687   -0.6569    0.0000 C   0  0  0  0  0  0  0  0  0  0  0  0
    7.1086    0.8365    0.0000 C   0  0  0  0  0  0  0  0  0  0  0  0
    5.8852    1.7044    0.0000 C   0  0  0  0  0  0  0  0  0  0  0  0
    4.5218    1.0788    0.0000 C   0  0  0  0  0  0  0  0  0  0  0  0
   -1.3902   -1.8460    0.0000 C   0  0  0  0  0  0  0  0  0  0  0  0
   -2.3813   -2.9720    0.0000 C   0  0  0  0  0  0  0  0  0  0  0  0
   -3.8449   -3.3005    0.0000 C   0  0  0  0  0  0  0  0  0  0  0  0
   -4.6095   -2.0100    0.0000 C   0  0  0  0  0  0  0  0  0  0  0  0
   -3.6185   -0.8840    0.0000 C   0  0  0  0  0  0  0  0  0  0  0  0
   -2.2414   -1.4786    0.0000 C   0  0  0  0  0  0  0  0  0  0  0  0
   -4.1052    1.1609    0.0000 C   0  0  0  0  0  0  0  0  0  0  0  0
   -4.5848    2.5822    0.0000 C   0  0  0  0  0  0  0  0  0  0  0  0
  1  2  2  0
  2  3  1  0
  3  4  2  0
  4  5  1  0
  5  6  1  0
  6  7  1  0
  7  8  1  0
  8  9  1  0
  9 10  1  0
 10 11  1  0
 11 12  1  0
 12 13  1  0
 13 14  1  0
 14 15  1  0
  5 16  1  0
 16 17  1  0
 17 18  1  0
 18 19  1  0
 19 20  1  0
 20 21  1  0
  4 22  1  0
 22 23  2  0
 23  1  1  0
 20  5  1  0
 15 10  1  0
 21 17  1  0
M  END
>  <Ki>  (17) 
9.6

>  <database>  (17) 
SRSLDB

$$$$

     RDKit          2D

 33 36  0  0  0  0  0  0  0  0999 V2000
   -7.5350    5.0295    0.0000 C   0  0  0  0  0  0  0  0  0  0  0  0
   -8.5632    3.9373    0.0000 O   0  0  0  0  0  0  0  0  0  0  0  0
   -8.1315    2.5008    0.0000 C   0  0  0  0  0  0  0  0  0  0  0  0
   -6.6716    2.1564    0.0000 C   0  0  0  0  0  0  0  0  0  0  0  0
   -6.2399    0.7198    0.0000 C   0  0  0  0  0  0  0  0  0  0  0  0
   -7.2682   -0.3723    0.0000 C   0  0  0  0  0  0  0  0  0  0  0  0
   -6.8365   -1.8088    0.0000 C   0  0  0  0  0  0  0  0  0  0  0  0
   -5.3766   -2.1533    0.0000 N   0  0  0  0  0  0  0  0  0  0  0  0
   -4.2398   -1.1746    0.0000 C   0  0  0  0  0  0  0  0  0  0  0  0
   -2.9578   -1.9533    0.0000 C   0  0  0  0  0  0  0  0  0  0  0  0
   -1.5742   -1.3738    0.0000 C   0  0  0  0  0  0  0  0  0  0  0  0
   -1.3843    0.1141    0.0000 O   0  0  0  0  0  0  0  0  0  0  0  0
   -0.3806   -2.2823    0.0000 N   0  0  0  0  0  0  0  0  0  0  0  0
    1.0030   -1.7028    0.0000 C   0  0  0  0  0  0  0  0  0  0  0  0
    2.1966   -2.6113    0.0000 C   0  0  0  0  0  0  0  0  0  0  0  0
    3.5801   -2.0318    0.0000 N   0  0  0  0  0  0  0  0  0  0  0  0
    4.7737   -2.9402    0.0000 C   0  0  0  0  0  0  0  0  0  0  0  0
    6.1573   -2.3608    0.0000 C   0  0  0  0  0  0  0  0  0  0  0  0
    6.3472   -0.8728    0.0000 C   0  0  0  0  0  0  0  0  0  0  0  0
    7.7308   -0.2934    0.0000 C   0  0  0  0  0  0  0  0  0  0  0  0
    7.9207    1.1946    0.0000 C   0  0  0  0  0  0  0  0  0  0  0  0
    9.3043    1.7740    0.0000 O   0  0  0  0  0  0  0  0  0  0  0  0
   10.4979    0.8656    0.0000 C   0  0  0  0  0  0  0  0  0  0  0  0
    6.7271    2.1030    0.0000 C   0  0  0  0  0  0  0  0  0  0  0  0
    6.9170    3.5909    0.0000 O   0  0  0  0  0  0  0  0  0  0  0  0
    5.7234    4.4994    0.0000 C   0  0  0  0  0  0  0  0  0  0  0  0
    5.3435    1.5235    0.0000 C   0  0  0  0  0  0  0  0  0  0  0  0
    5.1536    0.0356    0.0000 C   0  0  0  0  0  0  0  0  0  0  0  0
    3.7701   -0.5439    0.0000 C   0  0  0  0  0  0  0  0  0  0  0  0
   -3.3022   -3.4132    0.0000 N   0  0  0  0  0  0  0  0  0  0  0  0
   -4.7971   -3.5368    0.0000 N   0  0  0  0  0  0  0  0  0  0  0  0
   -8.7281   -0.0279    0.0000 C   0  0  0  0  0  0  0  0  0  0  0  0
   -9.1598    1.4087    0.0000 C   0  0  0  0  0  0  0  0  0  0  0  0
  1  2  1  0
  2  3  1  0
  3  4  2  0
  4  5  1  0
  5  6  2  0
  6  7  1  0
  7  8  1  0
  8  9  1  0
  9 10  2  0
 10 11  1  0
 11 12  2  0
 11 13  1  0
 13 14  1  0
 14 15  1  0
 15 16  1  0
 16 17  1  0
 17 18  1  0
 18 19  1  0
 19 20  2  0
 20 21  1  0
 21 22  1  0
 22 23  1  0
 21 24  2  0
 24 25  1  0
 25 26  1  0
 24 27  1  0
 27 28  2  0
 28 29  1  0
 10 30  1  0
 30 31  2  0
  6 32  1  0
 32 33  2  0
 33  3  1  0
 31  8  1  0
 29 16  1  0
 28 19  1  0
M  END
>  <ChemBL_ID>  (18) 
CHEMBL3262533

>  <Ki>  (18) 
93.2

>  <database>  (18) 
SRSLDB

$$$$

     RDKit          2D

 28 31  0  0  0  0  0  0  0  0999 V2000
    7.6021    2.4833    0.0000 C   0  0  0  0  0  0  0  0  0  0  0  0
    6.6492    1.3248    0.0000 N   0  0  0  0  0  0  0  0  0  0  0  0
    5.1519    1.4148    0.0000 C   0  0  0  0  0  0  0  0  0  0  0  0
    4.3446    2.6790    0.0000 O   0  0  0  0  0  0  0  0  0  0  0  0
    4.6036    0.0186    0.0000 N   0  0  0  0  0  0  0  0  0  0  0  0
    3.1518   -0.3585    0.0000 C   0  0  0  0  0  0  0  0  0  0  0  0
    2.0993    0.7102    0.0000 C   0  0  0  0  0  0  0  0  0  0  0  0
    0.6475    0.3331    0.0000 C   0  0  0  0  0  0  0  0  0  0  0  0
   -0.4050    1.4019    0.0000 C   0  0  0  0  0  0  0  0  0  0  0  0
   -1.8569    1.0248    0.0000 N   0  0  0  0  0  0  0  0  0  0  0  0
   -2.9094    2.0935    0.0000 C   0  0  0  0  0  0  0  0  0  0  0  0
   -4.3612    1.7164    0.0000 C   0  0  0  0  0  0  0  0  0  0  0  0
   -4.7605    0.2705    0.0000 N   0  0  0  0  0  0  0  0  0  0  0  0
   -6.2123   -0.1066    0.0000 C   0  0  0  0  0  0  0  0  0  0  0  0
   -7.2648    0.9621    0.0000 C   0  0  0  0  0  0  0  0  0  0  0  0
   -8.7166    0.5850    0.0000 C   0  0  0  0  0  0  0  0  0  0  0  0
   -9.1160   -0.8608    0.0000 C   0  0  0  0  0  0  0  0  0  0  0  0
  -10.5678   -1.2380    0.0000 F   0  0  0  0  0  0  0  0  0  0  0  0
   -8.0635   -1.9296    0.0000 C   0  0  0  0  0  0  0  0  0  0  0  0
   -6.6116   -1.5525    0.0000 C   0  0  0  0  0  0  0  0  0  0  0  0
   -3.7080   -0.7982    0.0000 C   0  0  0  0  0  0  0  0  0  0  0  0
   -2.2562   -0.4211    0.0000 C   0  0  0  0  0  0  0  0  0  0  0  0
    5.7621   -0.9343    0.0000 C   0  0  0  0  0  0  0  0  0  0  0  0
    5.8291   -2.4328    0.0000 C   0  0  0  0  0  0  0  0  0  0  0  0
    7.1603   -3.1240    0.0000 C   0  0  0  0  0  0  0  0  0  0  0  0
    8.4246   -2.3167    0.0000 C   0  0  0  0  0  0  0  0  0  0  0  0
    8.3575   -0.8182    0.0000 C   0  0  0  0  0  0  0  0  0  0  0  0
    7.0263   -0.1270    0.0000 C   0  0  0  0  0  0  0  0  0  0  0  0
  1  2  1  0
  2  3  1  0
  3  4  2  0
  3  5  1  0
  5  6  1  0
  6  7  1  0
  7  8  1  0
  8  9  1  0
  9 10  1  0
 10 11  1  0
 11 12  1  0
 12 13  1  0
 13 14  1  0
 14 15  2  0
 15 16  1  0
 16 17  2  0
 17 18  1  0
 17 19  1  0
 19 20  2  0
 13 21  1  0
 21 22  1  0
  5 23  1  0
 23 24  2  0
 24 25  1  0
 25 26  2  0
 26 27  1  0
 27 28  2  0
 28  2  1  0
 22 10  1  0
 28 23  1  0
 20 14  1  0
M  END
>  <Ki>  (19) 
0.46

>  <database>  (19) 
SRSLDB

$$$$

     RDKit          2D

 33 36  0  0  0  0  0  0  0  0999 V2000
  -11.9505    0.1232    0.0000 C   0  0  0  0  0  0  0  0  0  0  0  0
  -10.9134   -0.9605    0.0000 O   0  0  0  0  0  0  0  0  0  0  0  0
   -9.4563   -0.6042    0.0000 C   0  0  0  0  0  0  0  0  0  0  0  0
   -9.0364    0.8358    0.0000 C   0  0  0  0  0  0  0  0  0  0  0  0
   -7.5793    1.1921    0.0000 C   0  0  0  0  0  0  0  0  0  0  0  0
   -6.5422    0.1084    0.0000 C   0  0  0  0  0  0  0  0  0  0  0  0
   -6.9621   -1.3316    0.0000 C   0  0  0  0  0  0  0  0  0  0  0  0
   -8.4192   -1.6879    0.0000 C   0  0  0  0  0  0  0  0  0  0  0  0
   -8.8392   -3.1279    0.0000 O   0  0  0  0  0  0  0  0  0  0  0  0
   -7.8020   -4.2116    0.0000 C   0  0  0  0  0  0  0  0  0  0  0  0
   -5.0851    0.4648    0.0000 C   0  0  0  0  0  0  0  0  0  0  0  0
   -4.6652    1.9048    0.0000 N   0  0  0  0  0  0  0  0  0  0  0  0
   -3.2081    2.2611    0.0000 C   0  0  0  0  0  0  0  0  0  0  0  0
   -2.1710    1.1774    0.0000 C   0  0  0  0  0  0  0  0  0  0  0  0
   -0.7139    1.5337    0.0000 C   0  0  0  0  0  0  0  0  0  0  0  0
    0.3232    0.4500    0.0000 C   0  0  0  0  0  0  0  0  0  0  0  0
    1.7802    0.8063    0.0000 C   0  0  0  0  0  0  0  0  0  0  0  0
    2.8174   -0.2774    0.0000 C   0  0  0  0  0  0  0  0  0  0  0  0
    4.2744    0.0790    0.0000 N   0  0  0  0  0  0  0  0  0  0  0  0
    5.3115   -1.0047    0.0000 C   0  0  0  0  0  0  0  0  0  0  0  0
    4.8916   -2.4447    0.0000 O   0  0  0  0  0  0  0  0  0  0  0  0
    6.7686   -0.6484    0.0000 C   0  0  0  0  0  0  0  0  0  0  0  0
    7.9133   -1.6178    0.0000 C   0  0  0  0  0  0  0  0  0  0  0  0
    9.1890   -0.8286    0.0000 C   0  0  0  0  0  0  0  0  0  0  0  0
   10.6290   -1.2486    0.0000 C   0  0  0  0  0  0  0  0  0  0  0  0
   11.7127   -0.2115    0.0000 C   0  0  0  0  0  0  0  0  0  0  0  0
   13.1527   -0.6314    0.0000 I   0  0  0  0  0  0  0  0  0  0  0  0
   11.3563    1.2456    0.0000 C   0  0  0  0  0  0  0  0  0  0  0  0
    9.9163    1.6656    0.0000 C   0  0  0  0  0  0  0  0  0  0  0  0
    8.8326    0.6284    0.0000 C   0  0  0  0  0  0  0  0  0  0  0  0
    7.3368    0.7398    0.0000 O   0  0  0  0  0  0  0  0  0  0  0  0
   -5.7023    2.9885    0.0000 C   0  0  0  0  0  0  0  0  0  0  0  0
   -7.1594    2.6321    0.0000 C   0  0  0  0  0  0  0  0  0  0  0  0
  1  2  1  0
  2  3  1  0
  3  4  2  0
  4  5  1  0
  5  6  2  0
  6  7  1  0
  7  8  2  0
  8  9  1  0
  9 10  1  0
  6 11  1  0
 11 12  1  0
 12 13  1  0
 13 14  1  0
 14 15  1  0
 15 16  1  0
 16 17  1  0
 17 18  1  0
 18 19  1  0
 19 20  1  0
 20 21  2  0
 20 22  1  0
 22 23  2  0
 23 24  1  0
 24 25  2  0
 25 26  1  0
 26 27  1  0
 26 28  2  0
 28 29  1  0
 29 30  2  0
 30 31  1  0
 12 32  1  0
 32 33  1  0
  8  3  1  0
 31 22  1  0
 33  5  1  0
 30 24  1  0
M  END
>  <Ki>  (20) 
0.88

>  <database>  (20) 
SRSLDB

$$$$

     RDKit          2D

 37 40  0  0  0  0  0  0  0  0999 V2000
  -13.1223    1.1658    0.0000 C   0  0  0  0  0  0  0  0  0  0  0  0
  -12.2652   -0.0652    0.0000 O   0  0  0  0  0  0  0  0  0  0  0  0
  -10.7705    0.0616    0.0000 C   0  0  0  0  0  0  0  0  0  0  0  0
  -10.1330    1.4193    0.0000 C   0  0  0  0  0  0  0  0  0  0  0  0
   -8.6383    1.5461    0.0000 C   0  0  0  0  0  0  0  0  0  0  0  0
   -7.7813    0.3151    0.0000 C   0  0  0  0  0  0  0  0  0  0  0  0
   -8.4188   -1.0427    0.0000 C   0  0  0  0  0  0  0  0  0  0  0  0
   -9.9135   -1.1695    0.0000 C   0  0  0  0  0  0  0  0  0  0  0  0
  -10.5510   -2.5272    0.0000 O   0  0  0  0  0  0  0  0  0  0  0  0
   -9.6939   -3.7582    0.0000 C   0  0  0  0  0  0  0  0  0  0  0  0
   -6.2866    0.4418    0.0000 C   0  0  0  0  0  0  0  0  0  0  0  0
   -5.6491    1.7996    0.0000 N   0  0  0  0  0  0  0  0  0  0  0  0
   -4.1544    1.9263    0.0000 C   0  0  0  0  0  0  0  0  0  0  0  0
   -3.2974    0.6953    0.0000 C   0  0  0  0  0  0  0  0  0  0  0  0
   -1.8027    0.8220    0.0000 C   0  0  0  0  0  0  0  0  0  0  0  0
   -0.9456   -0.4090    0.0000 C   0  0  0  0  0  0  0  0  0  0  0  0
    0.5490   -0.2823    0.0000 N   0  0  0  0  0  0  0  0  0  0  0  0
    1.4061   -1.5133    0.0000 C   0  0  0  0  0  0  0  0  0  0  0  0
    0.7685   -2.8710    0.0000 O   0  0  0  0  0  0  0  0  0  0  0  0
    2.9007   -1.3865    0.0000 C   0  0  0  0  0  0  0  0  0  0  0  0
    3.6767   -0.1029    0.0000 C   0  0  0  0  0  0  0  0  0  0  0  0
    5.1373   -0.4442    0.0000 N   0  0  0  0  0  0  0  0  0  0  0  0
    6.2720    0.5369    0.0000 C   0  0  0  0  0  0  0  0  0  0  0  0
    7.6890    0.0447    0.0000 C   0  0  0  0  0  0  0  0  0  0  0  0
    7.9713   -1.4285    0.0000 C   0  0  0  0  0  0  0  0  0  0  0  0
    9.3882   -1.9206    0.0000 C   0  0  0  0  0  0  0  0  0  0  0  0
   10.5229   -0.9395    0.0000 C   0  0  0  0  0  0  0  0  0  0  0  0
   10.2407    0.5337    0.0000 C   0  0  0  0  0  0  0  0  0  0  0  0
   11.3753    1.5147    0.0000 O   0  0  0  0  0  0  0  0  0  0  0  0
   12.7923    1.0226    0.0000 C   0  0  0  0  0  0  0  0  0  0  0  0
   13.9270    2.0036    0.0000 C   0  0  0  0  0  0  0  0  0  0  0  0
   15.3440    1.5115    0.0000 F   0  0  0  0  0  0  0  0  0  0  0  0
    8.8237    1.0258    0.0000 C   0  0  0  0  0  0  0  0  0  0  0  0
    5.2641   -1.9388    0.0000 N   0  0  0  0  0  0  0  0  0  0  0  0
    3.8818   -2.5212    0.0000 N   0  0  0  0  0  0  0  0  0  0  0  0
   -6.5062    3.0306    0.0000 C   0  0  0  0  0  0  0  0  0  0  0  0
   -8.0008    2.9038    0.0000 C   0  0  0  0  0  0  0  0  0  0  0  0
  1  2  1  0
  2  3  1  0
  3  4  2  0
  4  5  1  0
  5  6  2  0
  6  7  1  0
  7  8  2  0
  8  9  1  0
  9 10  1  0
  6 11  1  0
 11 12  1  0
 12 13  1  0
 13 14  1  0
 14 15  1  0
 15 16  1  0
 16 17  1  0
 17 18  1  0
 18 19  2  0
 18 20  1  0
 20 21  2  0
 21 22  1  0
 22 23  1  0
 23 24  1  0
 24 25  2  0
 25 26  1  0
 26 27  2  0
 27 28  1  0
 28 29  1  0
 29 30  1  0
 30 31  1  0
 31 32  1  0
 28 33  2  0
 22 34  1  0
 34 35  2  0
 12 36  1  0
 36 37  1  0
  8  3  1  0
 35 20  1  0
 37  5  1  0
 33 24  1  0
M  END
>  <ChemBL_ID>  (21) 
CHEMBL3262527

>  <Ki>  (21) 
62.1

>  <database>  (21) 
SRSLDB

$$$$

     RDKit          2D

 36 39  0  0  0  0  0  0  0  0999 V2000
  -11.8899    1.9926    0.0000 C   0  0  0  0  0  0  0  0  0  0  0  0
  -11.2107    0.6551    0.0000 O   0  0  0  0  0  0  0  0  0  0  0  0
   -9.7129    0.5746    0.0000 C   0  0  0  0  0  0  0  0  0  0  0  0
   -8.8942    1.8315    0.0000 C   0  0  0  0  0  0  0  0  0  0  0  0
   -7.3964    1.7510    0.0000 C   0  0  0  0  0  0  0  0  0  0  0  0
   -6.7172    0.4136    0.0000 C   0  0  0  0  0  0  0  0  0  0  0  0
   -7.5358   -0.8433    0.0000 C   0  0  0  0  0  0  0  0  0  0  0  0
   -9.0337   -0.7628    0.0000 C   0  0  0  0  0  0  0  0  0  0  0  0
   -9.8523   -2.0197    0.0000 O   0  0  0  0  0  0  0  0  0  0  0  0
   -9.1731   -3.3571    0.0000 C   0  0  0  0  0  0  0  0  0  0  0  0
   -5.2193    0.3331    0.0000 C   0  0  0  0  0  0  0  0  0  0  0  0
   -4.4007    1.5900    0.0000 N   0  0  0  0  0  0  0  0  0  0  0  0
   -2.9029    1.5095    0.0000 C   0  0  0  0  0  0  0  0  0  0  0  0
   -2.2237    0.1721    0.0000 C   0  0  0  0  0  0  0  0  0  0  0  0
   -0.7258    0.0915    0.0000 C   0  0  0  0  0  0  0  0  0  0  0  0
   -0.0466   -1.2459    0.0000 C   0  0  0  0  0  0  0  0  0  0  0  0
    1.4512   -1.3264    0.0000 N   0  0  0  0  0  0  0  0  0  0  0  0
    2.1304   -2.6638    0.0000 C   0  0  0  0  0  0  0  0  0  0  0  0
    1.3117   -3.9207    0.0000 O   0  0  0  0  0  0  0  0  0  0  0  0
    3.6282   -2.7443    0.0000 C   0  0  0  0  0  0  0  0  0  0  0  0
    4.5738   -1.5799    0.0000 C   0  0  0  0  0  0  0  0  0  0  0  0
    5.9734   -2.1193    0.0000 N   0  0  0  0  0  0  0  0  0  0  0  0
    7.2325   -1.3040    0.0000 C   0  0  0  0  0  0  0  0  0  0  0  0
    8.5681   -1.9868    0.0000 C   0  0  0  0  0  0  0  0  0  0  0  0
    9.8272   -1.1715    0.0000 C   0  0  0  0  0  0  0  0  0  0  0  0
    9.7507    0.3265    0.0000 C   0  0  0  0  0  0  0  0  0  0  0  0
    8.4151    1.0093    0.0000 C   0  0  0  0  0  0  0  0  0  0  0  0
    8.3386    2.5073    0.0000 O   0  0  0  0  0  0  0  0  0  0  0  0
    9.5977    3.3226    0.0000 C   0  0  0  0  0  0  0  0  0  0  0  0
    9.5212    4.8207    0.0000 C   0  0  0  0  0  0  0  0  0  0  0  0
   10.7803    5.6359    0.0000 F   0  0  0  0  0  0  0  0  0  0  0  0
    7.1560    0.1940    0.0000 C   0  0  0  0  0  0  0  0  0  0  0  0
    5.8929   -3.6171    0.0000 N   0  0  0  0  0  0  0  0  0  0  0  0
    4.4435   -4.0034    0.0000 N   0  0  0  0  0  0  0  0  0  0  0  0
   -5.0799    2.9274    0.0000 C   0  0  0  0  0  0  0  0  0  0  0  0
   -6.5777    3.0079    0.0000 C   0  0  0  0  0  0  0  0  0  0  0  0
  1  2  1  0
  2  3  1  0
  3  4  2  0
  4  5  1  0
  5  6  2  0
  6  7  1  0
  7  8  2  0
  8  9  1  0
  9 10  1  0
  6 11  1  0
 11 12  1  0
 12 13  1  0
 13 14  1  0
 14 15  1  0
 15 16  1  0
 16 17  1  0
 17 18  1  0
 18 19  2  0
 18 20  1  0
 20 21  2  0
 21 22  1  0
 22 23  1  0
 23 24  2  0
 24 25  1  0
 25 26  2  0
 26 27  1  0
 27 28  1  0
 28 29  1  0
 29 30  1  0
 30 31  1  0
 27 32  2  0
 22 33  1  0
 33 34  2  0
 12 35  1  0
 35 36  1  0
  8  3  1  0
 34 20  1  0
 36  5  1  0
 32 23  1  0
M  END
>  <ChemBL_ID>  (22) 
CHEMBL3262515

>  <Ki>  (22) 
25.1

>  <database>  (22) 
SRSLDB

$$$$

     RDKit          2D

 36 39  0  0  0  0  0  0  0  0999 V2000
  -11.5180    1.3038    0.0000 C   0  0  0  0  0  0  0  0  0  0  0  0
  -10.7428    0.0197    0.0000 O   0  0  0  0  0  0  0  0  0  0  0  0
   -9.2431    0.0490    0.0000 C   0  0  0  0  0  0  0  0  0  0  0  0
   -8.5186    1.3624    0.0000 C   0  0  0  0  0  0  0  0  0  0  0  0
   -7.0189    1.3917    0.0000 C   0  0  0  0  0  0  0  0  0  0  0  0
   -6.2436    0.1076    0.0000 C   0  0  0  0  0  0  0  0  0  0  0  0
   -6.9681   -1.2058    0.0000 C   0  0  0  0  0  0  0  0  0  0  0  0
   -8.4678   -1.2351    0.0000 C   0  0  0  0  0  0  0  0  0  0  0  0
   -9.1923   -2.5486    0.0000 O   0  0  0  0  0  0  0  0  0  0  0  0
   -8.4171   -3.8327    0.0000 C   0  0  0  0  0  0  0  0  0  0  0  0
   -4.7439    0.1369    0.0000 C   0  0  0  0  0  0  0  0  0  0  0  0
   -4.0195    1.4504    0.0000 N   0  0  0  0  0  0  0  0  0  0  0  0
   -2.5197    1.4797    0.0000 C   0  0  0  0  0  0  0  0  0  0  0  0
   -1.7445    0.1955    0.0000 C   0  0  0  0  0  0  0  0  0  0  0  0
   -0.2448    0.2248    0.0000 C   0  0  0  0  0  0  0  0  0  0  0  0
    0.5304   -1.0593    0.0000 C   0  0  0  0  0  0  0  0  0  0  0  0
    2.0302   -1.0300    0.0000 N   0  0  0  0  0  0  0  0  0  0  0  0
    2.8054   -2.3141    0.0000 C   0  0  0  0  0  0  0  0  0  0  0  0
    2.0809   -3.6276    0.0000 O   0  0  0  0  0  0  0  0  0  0  0  0
    4.3051   -2.2848    0.0000 C   0  0  0  0  0  0  0  0  0  0  0  0
    5.1629   -1.0543    0.0000 C   0  0  0  0  0  0  0  0  0  0  0  0
    6.5983   -1.4899    0.0000 N   0  0  0  0  0  0  0  0  0  0  0  0
    7.7943   -0.5847    0.0000 C   0  0  0  0  0  0  0  0  0  0  0  0
    9.1763   -1.1679    0.0000 C   0  0  0  0  0  0  0  0  0  0  0  0
   10.3724   -0.2627    0.0000 C   0  0  0  0  0  0  0  0  0  0  0  0
   10.1865    1.2258    0.0000 C   0  0  0  0  0  0  0  0  0  0  0  0
    8.8045    1.8090    0.0000 C   0  0  0  0  0  0  0  0  0  0  0  0
    7.6084    0.9038    0.0000 C   0  0  0  0  0  0  0  0  0  0  0  0
    6.2265    1.4870    0.0000 O   0  0  0  0  0  0  0  0  0  0  0  0
    6.0406    2.9754    0.0000 C   0  0  0  0  0  0  0  0  0  0  0  0
    4.6586    3.5586    0.0000 C   0  0  0  0  0  0  0  0  0  0  0  0
    4.4727    5.0471    0.0000 F   0  0  0  0  0  0  0  0  0  0  0  0
    6.6276   -2.9896    0.0000 N   0  0  0  0  0  0  0  0  0  0  0  0
    5.2103   -3.4809    0.0000 N   0  0  0  0  0  0  0  0  0  0  0  0
   -4.7947    2.7345    0.0000 C   0  0  0  0  0  0  0  0  0  0  0  0
   -6.2944    2.7052    0.0000 C   0  0  0  0  0  0  0  0  0  0  0  0
  1  2  1  0
  2  3  1  0
  3  4  2  0
  4  5  1  0
  5  6  2  0
  6  7  1  0
  7  8  2  0
  8  9  1  0
  9 10  1  0
  6 11  1  0
 11 12  1  0
 12 13  1  0
 13 14  1  0
 14 15  1  0
 15 16  1  0
 16 17  1  0
 17 18  1  0
 18 19  2  0
 18 20  1  0
 20 21  2  0
 21 22  1  0
 22 23  1  0
 23 24  2  0
 24 25  1  0
 25 26  2  0
 26 27  1  0
 27 28  2  0
 28 29  1  0
 29 30  1  0
 30 31  1  0
 31 32  1  0
 22 33  1  0
 33 34  2  0
 12 35  1  0
 35 36  1  0
  8  3  1  0
 34 20  1  0
 36  5  1  0
 28 23  1  0
M  END
>  <ChemBL_ID>  (23) 
CHEMBL3262514

>  <Ki>  (23) 
24.0

>  <database>  (23) 
SRSLDB

$$$$

     RDKit          2D

 27 30  0  0  0  0  0  0  0  0999 V2000
    2.0859   -4.1303    0.0000 O   0  0  0  0  0  0  0  0  0  0  0  0
    0.8824   -3.2350    0.0000 C   0  0  0  0  0  0  0  0  0  0  0  0
    1.0560   -1.7451    0.0000 C   0  0  0  0  0  0  0  0  0  0  0  0
   -0.1475   -0.8498    0.0000 C   0  0  0  0  0  0  0  0  0  0  0  0
   -1.5246   -1.4443    0.0000 C   0  0  0  0  0  0  0  0  0  0  0  0
   -2.7281   -0.5490    0.0000 N   0  0  0  0  0  0  0  0  0  0  0  0
   -4.1052   -1.1436    0.0000 C   0  0  0  0  0  0  0  0  0  0  0  0
   -5.3087   -0.2483    0.0000 C   0  0  0  0  0  0  0  0  0  0  0  0
   -5.1351    1.2417    0.0000 C   0  0  0  0  0  0  0  0  0  0  0  0
   -6.3385    2.1370    0.0000 C   0  0  0  0  0  0  0  0  0  0  0  0
   -7.7157    1.5424    0.0000 C   0  0  0  0  0  0  0  0  0  0  0  0
   -7.8893    0.0525    0.0000 C   0  0  0  0  0  0  0  0  0  0  0  0
   -6.6858   -0.8428    0.0000 C   0  0  0  0  0  0  0  0  0  0  0  0
   -2.5544    0.9409    0.0000 C   0  0  0  0  0  0  0  0  0  0  0  0
   -1.1773    1.5355    0.0000 C   0  0  0  0  0  0  0  0  0  0  0  0
    0.0262    0.6402    0.0000 N   0  0  0  0  0  0  0  0  0  0  0  0
    1.4033    1.2347    0.0000 C   0  0  0  0  0  0  0  0  0  0  0  0
    2.6068    0.3394    0.0000 C   0  0  0  0  0  0  0  0  0  0  0  0
    2.4331   -1.1505    0.0000 C   0  0  0  0  0  0  0  0  0  0  0  0
    3.6366   -2.0458    0.0000 C   0  0  0  0  0  0  0  0  0  0  0  0
    5.0138   -1.4512    0.0000 C   0  0  0  0  0  0  0  0  0  0  0  0
    5.1874    0.0387    0.0000 C   0  0  0  0  0  0  0  0  0  0  0  0
    6.5645    0.6333    0.0000 C   0  0  0  0  0  0  0  0  0  0  0  0
    6.7381    2.1232    0.0000 C   0  0  0  0  0  0  0  0  0  0  0  0
    5.5347    3.0185    0.0000 C   0  0  0  0  0  0  0  0  0  0  0  0
    4.1575    2.4239    0.0000 C   0  0  0  0  0  0  0  0  0  0  0  0
    3.9839    0.9340    0.0000 C   0  0  0  0  0  0  0  0  0  0  0  0
  1  2  1  0
  2  3  1  0
  4  3  1  1
  4  5  1  0
  5  6  1  0
  6  7  1  0
  7  8  1  0
  8  9  1  0
  9 10  1  0
 10 11  1  0
 11 12  1  0
 12 13  1  0
  6 14  1  0
 14 15  1  0
 15 16  1  0
 16 17  1  0
 17 18  1  0
 18 19  2  0
 19 20  1  0
 20 21  2  0
 21 22  1  0
 22 23  2  0
 23 24  1  0
 24 25  2  0
 25 26  1  0
 26 27  2  0
 16  4  1  0
 27 18  1  0
 13  8  1  0
 27 22  1  0
M  END
>  <ChemBL_ID>  (24) 
CHEMBL3233530

>  <Compound_Key>  (24) 
SYA013-D-6

>  <Ki>  (24) 
16.0

>  <database>  (24) 
SRSLDB

$$$$

     RDKit          2D

 35 38  0  0  0  0  0  0  0  0999 V2000
   -8.9128    5.1190    0.0000 C   0  0  0  0  0  0  0  0  0  0  0  0
   -9.9181    4.0057    0.0000 O   0  0  0  0  0  0  0  0  0  0  0  0
   -9.4567    2.5785    0.0000 C   0  0  0  0  0  0  0  0  0  0  0  0
   -7.9899    2.2645    0.0000 C   0  0  0  0  0  0  0  0  0  0  0  0
   -7.5285    0.8372    0.0000 C   0  0  0  0  0  0  0  0  0  0  0  0
   -8.5338   -0.2760    0.0000 C   0  0  0  0  0  0  0  0  0  0  0  0
   -8.0724   -1.7033    0.0000 C   0  0  0  0  0  0  0  0  0  0  0  0
   -6.6056   -2.0173    0.0000 N   0  0  0  0  0  0  0  0  0  0  0  0
   -5.4894   -1.0153    0.0000 C   0  0  0  0  0  0  0  0  0  0  0  0
   -4.1915   -1.7671    0.0000 C   0  0  0  0  0  0  0  0  0  0  0  0
   -2.8203   -1.1590    0.0000 C   0  0  0  0  0  0  0  0  0  0  0  0
   -2.6613    0.3325    0.0000 O   0  0  0  0  0  0  0  0  0  0  0  0
   -1.6080   -2.0425    0.0000 N   0  0  0  0  0  0  0  0  0  0  0  0
   -0.2368   -1.4344    0.0000 C   0  0  0  0  0  0  0  0  0  0  0  0
    0.9754   -2.3178    0.0000 C   0  0  0  0  0  0  0  0  0  0  0  0
    2.3466   -1.7097    0.0000 C   0  0  0  0  0  0  0  0  0  0  0  0
    3.5588   -2.5932    0.0000 C   0  0  0  0  0  0  0  0  0  0  0  0
    4.9301   -1.9851    0.0000 N   0  0  0  0  0  0  0  0  0  0  0  0
    6.1423   -2.8685    0.0000 C   0  0  0  0  0  0  0  0  0  0  0  0
    7.5135   -2.2604    0.0000 C   0  0  0  0  0  0  0  0  0  0  0  0
    7.6725   -0.7689    0.0000 C   0  0  0  0  0  0  0  0  0  0  0  0
    9.0437   -0.1608    0.0000 C   0  0  0  0  0  0  0  0  0  0  0  0
    9.2027    1.3308    0.0000 C   0  0  0  0  0  0  0  0  0  0  0  0
   10.5739    1.9389    0.0000 O   0  0  0  0  0  0  0  0  0  0  0  0
   11.7861    1.0554    0.0000 C   0  0  0  0  0  0  0  0  0  0  0  0
    7.9904    2.2142    0.0000 C   0  0  0  0  0  0  0  0  0  0  0  0
    8.1494    3.7058    0.0000 O   0  0  0  0  0  0  0  0  0  0  0  0
    6.9372    4.5892    0.0000 C   0  0  0  0  0  0  0  0  0  0  0  0
    6.6192    1.6061    0.0000 C   0  0  0  0  0  0  0  0  0  0  0  0
    6.4602    0.1146    0.0000 C   0  0  0  0  0  0  0  0  0  0  0  0
    5.0890   -0.4935    0.0000 C   0  0  0  0  0  0  0  0  0  0  0  0
   -4.5055   -3.2339    0.0000 N   0  0  0  0  0  0  0  0  0  0  0  0
   -5.9975   -3.3885    0.0000 N   0  0  0  0  0  0  0  0  0  0  0  0
  -10.0006    0.0380    0.0000 C   0  0  0  0  0  0  0  0  0  0  0  0
  -10.4620    1.4652    0.0000 C   0  0  0  0  0  0  0  0  0  0  0  0
  1  2  1  0
  2  3  1  0
  3  4  2  0
  4  5  1  0
  5  6  2  0
  6  7  1  0
  7  8  1  0
  8  9  1  0
  9 10  2  0
 10 11  1  0
 11 12  2  0
 11 13  1  0
 13 14  1  0
 14 15  1  0
 15 16  1  0
 16 17  1  0
 17 18  1  0
 18 19  1  0
 19 20  1  0
 20 21  1  0
 21 22  2  0
 22 23  1  0
 23 24  1  0
 24 25  1  0
 23 26  2  0
 26 27  1  0
 27 28  1  0
 26 29  1  0
 29 30  2  0
 30 31  1  0
 10 32  1  0
 32 33  2  0
  6 34  1  0
 34 35  2  0
 35  3  1  0
 33  8  1  0
 31 18  1  0
 30 21  1  0
M  END
>  <ChemBL_ID>  (25) 
CHEMBL3262523

>  <Ki>  (25) 
5.0

>  <database>  (25) 
SRSLDB

$$$$

     RDKit          2D

 24 27  0  0  0  0  0  0  0  0999 V2000
   -4.2641    4.6065    0.0000 F   0  0  0  0  0  0  0  0  0  0  0  0
   -3.6784    3.2256    0.0000 C   0  0  0  0  0  0  0  0  0  0  0  0
   -2.1897    3.0424    0.0000 C   0  0  0  0  0  0  0  0  0  0  0  0
   -1.6040    1.6615    0.0000 C   0  0  0  0  0  0  0  0  0  0  0  0
   -2.5070    0.4638    0.0000 C   0  0  0  0  0  0  0  0  0  0  0  0
   -1.9213   -0.9172    0.0000 C   0  0  0  0  0  0  0  0  0  0  0  0
   -0.6092   -0.1903    0.0000 N   0  0  0  0  0  0  0  0  0  0  0  0
    0.6763   -0.9632    0.0000 C   0  0  0  0  0  0  0  0  0  0  0  0
    1.9885   -0.2364    0.0000 C   0  0  0  0  0  0  0  0  0  0  0  0
    3.2740   -1.0093    0.0000 C   0  0  0  0  0  0  0  0  0  0  0  0
    4.5861   -0.2825    0.0000 N   0  0  0  0  0  0  0  0  0  0  0  0
    5.8717   -1.0554    0.0000 C   0  0  0  0  0  0  0  0  0  0  0  0
    7.1838   -0.3286    0.0000 C   0  0  0  0  0  0  0  0  0  0  0  0
    7.2104    1.1712    0.0000 C   0  0  0  0  0  0  0  0  0  0  0  0
    5.9249    1.9441    0.0000 C   0  0  0  0  0  0  0  0  0  0  0  0
    4.6127    1.2173    0.0000 C   0  0  0  0  0  0  0  0  0  0  0  0
   -1.0613   -2.1461    0.0000 C   0  0  0  0  0  0  0  0  0  0  0  0
   -1.9644   -3.3438    0.0000 C   0  0  0  0  0  0  0  0  0  0  0  0
   -3.3990   -3.7820    0.0000 C   0  0  0  0  0  0  0  0  0  0  0  0
   -4.2590   -2.5530    0.0000 C   0  0  0  0  0  0  0  0  0  0  0  0
   -3.3559   -1.3553    0.0000 C   0  0  0  0  0  0  0  0  0  0  0  0
   -1.9378   -1.8441    0.0000 C   0  0  0  0  0  0  0  0  0  0  0  0
   -3.9958    0.6470    0.0000 C   0  0  0  0  0  0  0  0  0  0  0  0
   -4.5815    2.0279    0.0000 C   0  0  0  0  0  0  0  0  0  0  0  0
  1  2  1  0
  2  3  2  0
  3  4  1  0
  4  5  2  0
  5  6  1  0
  6  7  1  0
  7  8  1  0
  8  9  1  0
  9 10  1  0
 10 11  1  0
 11 12  1  0
 12 13  1  0
 13 14  1  0
 14 15  1  0
 15 16  1  0
  6 17  1  0
 17 18  1  0
 18 19  1  0
 19 20  1  0
 20 21  1  0
 21 22  1  0
  5 23  1  0
 23 24  2  0
 24  2  1  0
 21  6  1  0
 16 11  1  0
 22 18  1  0
M  END
>  <Ki>  (26) 
16.0

>  <database>  (26) 
SRSLDB

$$$$

     RDKit          2D

 26 29  0  0  0  0  0  0  0  0999 V2000
   -8.3560   -1.3835    0.0000 O   0  0  0  0  0  0  0  0  0  0  0  0
   -7.2751   -0.3435    0.0000 C   0  0  0  0  0  0  0  0  0  0  0  0
   -7.6353    1.1126    0.0000 C   0  0  0  0  0  0  0  0  0  0  0  0
   -6.5543    2.1526    0.0000 C   0  0  0  0  0  0  0  0  0  0  0  0
   -5.1132    1.7365    0.0000 C   0  0  0  0  0  0  0  0  0  0  0  0
   -4.7530    0.2804    0.0000 C   0  0  0  0  0  0  0  0  0  0  0  0
   -5.8340   -0.7596    0.0000 C   0  0  0  0  0  0  0  0  0  0  0  0
   -5.4738   -2.2157    0.0000 C   0  0  0  0  0  0  0  0  0  0  0  0
   -4.0327   -2.6319    0.0000 C   0  0  0  0  0  0  0  0  0  0  0  0
   -2.9517   -1.5919    0.0000 C   0  0  0  0  0  0  0  0  0  0  0  0
   -3.3119   -0.1358    0.0000 C   0  0  0  0  0  0  0  0  0  0  0  0
   -2.2309    0.9042    0.0000 C   0  0  0  0  0  0  0  0  0  0  0  0
   -0.7898    0.4881    0.0000 C   0  0  0  0  0  0  0  0  0  0  0  0
    0.2911    1.5281    0.0000 C   0  0  0  0  0  0  0  0  0  0  0  0
    1.7322    1.1119    0.0000 N   0  0  0  0  0  0  0  0  0  0  0  0
    2.0924   -0.3442    0.0000 C   0  0  0  0  0  0  0  0  0  0  0  0
    3.5335   -0.7603    0.0000 C   0  0  0  0  0  0  0  0  0  0  0  0
    4.6145    0.2797    0.0000 N   0  0  0  0  0  0  0  0  0  0  0  0
    6.0556   -0.1365    0.0000 C   0  0  0  0  0  0  0  0  0  0  0  0
    6.4158   -1.5926    0.0000 C   0  0  0  0  0  0  0  0  0  0  0  0
    7.8569   -2.0087    0.0000 C   0  0  0  0  0  0  0  0  0  0  0  0
    8.9379   -0.9687    0.0000 C   0  0  0  0  0  0  0  0  0  0  0  0
    8.5777    0.4874    0.0000 C   0  0  0  0  0  0  0  0  0  0  0  0
    7.1365    0.9035    0.0000 C   0  0  0  0  0  0  0  0  0  0  0  0
    4.2543    1.7358    0.0000 C   0  0  0  0  0  0  0  0  0  0  0  0
    2.8132    2.1519    0.0000 C   0  0  0  0  0  0  0  0  0  0  0  0
  1  2  1  0
  2  3  2  0
  3  4  1  0
  4  5  2  0
  5  6  1  0
  6  7  2  0
  7  8  1  0
  8  9  1  0
  9 10  1  0
 10 11  1  0
 11 12  1  0
 12 13  1  0
 13 14  1  0
 14 15  1  0
 15 16  1  0
 16 17  1  0
 17 18  1  0
 18 19  1  0
 19 20  1  0
 20 21  1  0
 21 22  1  0
 22 23  1  0
 23 24  1  0
 18 25  1  0
 25 26  1  0
  7  2  1  0
 26 15  1  0
 11  6  1  0
 24 19  1  0
M  END
>  <ChemBL_ID>  (27) 
CHEMBL74723

>  <Compound_Key>  (27) 
41

>  <Ki>  (27) 
2.66

>  <database>  (27) 
CHEMBL

>  <Assay_ChEMBL_ID>  (27) 
CHEMBL807586

>  <Document_ChEMBL_ID>  (27) 
CHEMBL1148440

$$$$

     RDKit          2D

 35 38  0  0  0  0  0  0  0  0999 V2000
  -12.3266    0.9037    0.0000 C   0  0  0  0  0  0  0  0  0  0  0  0
  -11.4244   -0.2947    0.0000 O   0  0  0  0  0  0  0  0  0  0  0  0
   -9.9355   -0.1125    0.0000 C   0  0  0  0  0  0  0  0  0  0  0  0
   -9.3488    1.2679    0.0000 C   0  0  0  0  0  0  0  0  0  0  0  0
   -7.8599    1.4501    0.0000 C   0  0  0  0  0  0  0  0  0  0  0  0
   -6.9577    0.2517    0.0000 C   0  0  0  0  0  0  0  0  0  0  0  0
   -7.5445   -1.1288    0.0000 C   0  0  0  0  0  0  0  0  0  0  0  0
   -9.0334   -1.3109    0.0000 C   0  0  0  0  0  0  0  0  0  0  0  0
   -9.6201   -2.6914    0.0000 O   0  0  0  0  0  0  0  0  0  0  0  0
   -8.7179   -3.8898    0.0000 C   0  0  0  0  0  0  0  0  0  0  0  0
   -5.4688    0.4338    0.0000 C   0  0  0  0  0  0  0  0  0  0  0  0
   -4.8821    1.8143    0.0000 N   0  0  0  0  0  0  0  0  0  0  0  0
   -3.3932    1.9964    0.0000 C   0  0  0  0  0  0  0  0  0  0  0  0
   -2.4910    0.7981    0.0000 C   0  0  0  0  0  0  0  0  0  0  0  0
   -1.0021    0.9802    0.0000 C   0  0  0  0  0  0  0  0  0  0  0  0
   -0.0999   -0.2182    0.0000 C   0  0  0  0  0  0  0  0  0  0  0  0
    1.3890   -0.0360    0.0000 N   0  0  0  0  0  0  0  0  0  0  0  0
    2.2911   -1.2344    0.0000 C   0  0  0  0  0  0  0  0  0  0  0  0
    1.7044   -2.6149    0.0000 O   0  0  0  0  0  0  0  0  0  0  0  0
    3.7800   -1.0523    0.0000 C   0  0  0  0  0  0  0  0  0  0  0  0
    4.6822   -2.2506    0.0000 C   0  0  0  0  0  0  0  0  0  0  0  0
    6.1711   -2.0685    0.0000 C   0  0  0  0  0  0  0  0  0  0  0  0
    6.7578   -0.6880    0.0000 C   0  0  0  0  0  0  0  0  0  0  0  0
    8.2467   -0.5059    0.0000 C   0  0  0  0  0  0  0  0  0  0  0  0
    8.9746    0.8057    0.0000 C   0  0  0  0  0  0  0  0  0  0  0  0
   10.4469    0.5188    0.0000 N   0  0  0  0  0  0  0  0  0  0  0  0
   11.5444    1.5413    0.0000 C   0  0  0  0  0  0  0  0  0  0  0  0
   12.9786    1.1021    0.0000 C   0  0  0  0  0  0  0  0  0  0  0  0
   14.0761    2.1246    0.0000 F   0  0  0  0  0  0  0  0  0  0  0  0
   10.6290   -0.9701    0.0000 N   0  0  0  0  0  0  0  0  0  0  0  0
    9.2692   -1.6034    0.0000 N   0  0  0  0  0  0  0  0  0  0  0  0
    5.8557    0.5103    0.0000 C   0  0  0  0  0  0  0  0  0  0  0  0
    4.3668    0.3282    0.0000 C   0  0  0  0  0  0  0  0  0  0  0  0
   -5.7843    3.0127    0.0000 C   0  0  0  0  0  0  0  0  0  0  0  0
   -7.2732    2.8306    0.0000 C   0  0  0  0  0  0  0  0  0  0  0  0
  1  2  1  0
  2  3  1  0
  3  4  2  0
  4  5  1  0
  5  6  2  0
  6  7  1  0
  7  8  2  0
  8  9  1  0
  9 10  1  0
  6 11  1  0
 11 12  1  0
 12 13  1  0
 13 14  1  0
 14 15  1  0
 15 16  1  0
 16 17  1  0
 17 18  1  0
 18 19  2  0
 18 20  1  0
 20 21  2  0
 21 22  1  0
 22 23  2  0
 23 24  1  0
 24 25  2  0
 25 26  1  0
 26 27  1  0
 27 28  1  0
 28 29  1  0
 26 30  1  0
 30 31  2  0
 23 32  1  0
 32 33  2  0
 12 34  1  0
 34 35  1  0
  8  3  1  0
 33 20  1  0
 35  5  1  0
 31 24  1  0
M  END
>  <ChemBL_ID>  (28) 
CHEMBL3262534

>  <Ki>  (28) 
139.0

>  <database>  (28) 
SRSLDB

$$$$

     RDKit          2D

 27 30  0  0  0  0  0  0  0  0999 V2000
   -6.5025   -4.2836    0.0000 C   0  0  0  0  0  0  0  0  0  0  0  0
   -5.2281   -3.4925    0.0000 O   0  0  0  0  0  0  0  0  0  0  0  0
   -5.2759   -1.9933    0.0000 C   0  0  0  0  0  0  0  0  0  0  0  0
   -6.5982   -1.2851    0.0000 C   0  0  0  0  0  0  0  0  0  0  0  0
   -6.6460    0.2142    0.0000 C   0  0  0  0  0  0  0  0  0  0  0  0
   -5.3715    1.0052    0.0000 C   0  0  0  0  0  0  0  0  0  0  0  0
   -5.1066    2.4816    0.0000 N   0  0  0  0  0  0  0  0  0  0  0  0
   -3.6206    2.6859    0.0000 C   0  0  0  0  0  0  0  0  0  0  0  0
   -2.9671    1.3357    0.0000 C   0  0  0  0  0  0  0  0  0  0  0  0
   -1.4907    1.0708    0.0000 C   0  0  0  0  0  0  0  0  0  0  0  0
   -0.9819   -0.3403    0.0000 O   0  0  0  0  0  0  0  0  0  0  0  0
   -0.5230    2.2169    0.0000 C   0  0  0  0  0  0  0  0  0  0  0  0
    0.9534    1.9520    0.0000 N   0  0  0  0  0  0  0  0  0  0  0  0
    1.4622    0.5409    0.0000 C   0  0  0  0  0  0  0  0  0  0  0  0
    2.9386    0.2760    0.0000 C   0  0  0  0  0  0  0  0  0  0  0  0
    3.9062    1.4221    0.0000 C   0  0  0  0  0  0  0  0  0  0  0  0
    5.3827    1.1572    0.0000 C   0  0  0  0  0  0  0  0  0  0  0  0
    5.8914   -0.2539    0.0000 C   0  0  0  0  0  0  0  0  0  0  0  0
    4.9238   -1.4000    0.0000 C   0  0  0  0  0  0  0  0  0  0  0  0
    5.4325   -2.8111    0.0000 C   0  0  0  0  0  0  0  0  0  0  0  0
    6.9090   -3.0760    0.0000 C   0  0  0  0  0  0  0  0  0  0  0  0
    7.8766   -1.9299    0.0000 C   0  0  0  0  0  0  0  0  0  0  0  0
    7.3678   -0.5188    0.0000 C   0  0  0  0  0  0  0  0  0  0  0  0
    3.3975    2.8332    0.0000 C   0  0  0  0  0  0  0  0  0  0  0  0
    1.9210    3.0981    0.0000 C   0  0  0  0  0  0  0  0  0  0  0  0
   -4.0492    0.2970    0.0000 C   0  0  0  0  0  0  0  0  0  0  0  0
   -4.0014   -1.2023    0.0000 C   0  0  0  0  0  0  0  0  0  0  0  0
  1  2  1  0
  2  3  1  0
  3  4  2  0
  4  5  1  0
  5  6  2  0
  6  7  1  0
  7  8  1  0
  8  9  2  0
  9 10  1  0
 10 11  2  0
 10 12  1  0
 12 13  1  0
 13 14  1  0
 14 15  1  0
 15 16  1  0
 16 17  1  0
 17 18  1  0
 18 19  2  0
 19 20  1  0
 20 21  2  0
 21 22  1  0
 22 23  2  0
 16 24  1  0
 24 25  1  0
  9 26  1  0
 26 27  2  0
 27  3  1  0
 26  6  1  0
 25 13  1  0
 23 18  1  0
M  END
>  <ChemBL_ID>  (29) 
CHEMBL456206

>  <Ki>  (29) 
10.0

>  <database>  (29) 
SRSLDB

$$$$

     RDKit          2D

 49 54  0  0  0  0  0  0  0  0999 V2000
  -13.1807   -5.5399    0.0000 C   0  0  0  0  0  0  0  0  0  0  0  0
  -11.6807   -5.5492    0.0000 O   0  0  0  0  0  0  0  0  0  0  0  0
  -10.9227   -4.2548    0.0000 C   0  0  0  0  0  0  0  0  0  0  0  0
  -11.6646   -2.9512    0.0000 C   0  0  0  0  0  0  0  0  0  0  0  0
  -10.9066   -1.6568    0.0000 C   0  0  0  0  0  0  0  0  0  0  0  0
   -9.4066   -1.6661    0.0000 C   0  0  0  0  0  0  0  0  0  0  0  0
   -8.6647   -2.9697    0.0000 C   0  0  0  0  0  0  0  0  0  0  0  0
   -9.4227   -4.2641    0.0000 C   0  0  0  0  0  0  0  0  0  0  0  0
   -8.6807   -5.5678    0.0000 O   0  0  0  0  0  0  0  0  0  0  0  0
   -7.1808   -5.5771    0.0000 C   0  0  0  0  0  0  0  0  0  0  0  0
   -8.6486   -0.3717    0.0000 C   0  0  0  0  0  0  0  0  0  0  0  0
   -9.3905    0.9319    0.0000 N   0  0  0  0  0  0  0  0  0  0  0  0
   -8.6325    2.2263    0.0000 C   0  0  0  0  0  0  0  0  0  0  0  0
   -7.1325    2.2170    0.0000 C   0  0  0  0  0  0  0  0  0  0  0  0
   -6.3745    3.5114    0.0000 C   0  0  0  0  0  0  0  0  0  0  0  0
   -4.8745    3.5021    0.0000 N   0  0  0  0  0  0  0  0  0  0  0  0
   -4.1326    2.1984    0.0000 C   0  0  0  0  0  0  0  0  0  0  0  0
   -2.6326    2.1891    0.0000 C   0  0  0  0  0  0  0  0  0  0  0  0
   -1.8746    3.4835    0.0000 C   0  0  0  0  0  0  0  0  0  0  0  0
   -0.3746    3.4742    0.0000 C   0  0  0  0  0  0  0  0  0  0  0  0
    0.3674    2.1706    0.0000 O   0  0  0  0  0  0  0  0  0  0  0  0
    1.8673    2.1613    0.0000 C   0  0  0  0  0  0  0  0  0  0  0  0
    2.6093    0.8576    0.0000 C   0  0  0  0  0  0  0  0  0  0  0  0
    4.1092    0.8483    0.0000 C   0  0  0  0  0  0  0  0  0  0  0  0
    4.8512   -0.4553    0.0000 C   0  0  0  0  0  0  0  0  0  0  0  0
    6.3511   -0.4646    0.0000 C   0  0  0  0  0  0  0  0  0  0  0  0
    7.0931   -1.7683    0.0000 C   0  0  0  0  0  0  0  0  0  0  0  0
    8.5931   -1.7776    0.0000 N   0  0  0  0  0  0  0  0  0  0  0  0
    9.4672   -2.9965    0.0000 C   0  0  0  0  0  0  0  0  0  0  0  0
    8.9949   -4.4202    0.0000 O   0  0  0  0  0  0  0  0  0  0  0  0
   10.8966   -2.5418    0.0000 C   0  0  0  0  0  0  0  0  0  0  0  0
   12.1910   -3.2999    0.0000 C   0  0  0  0  0  0  0  0  0  0  0  0
   13.4947   -2.5579    0.0000 C   0  0  0  0  0  0  0  0  0  0  0  0
   13.5040   -1.0580    0.0000 C   0  0  0  0  0  0  0  0  0  0  0  0
   14.8076   -0.3160    0.0000 N   0  0  0  0  0  0  0  0  0  0  0  0
   16.1020   -1.0741    0.0000 C   0  0  0  0  0  0  0  0  0  0  0  0
   14.8169    1.1839    0.0000 C   0  0  0  0  0  0  0  0  0  0  0  0
   12.2096   -0.2999    0.0000 C   0  0  0  0  0  0  0  0  0  0  0  0
   10.9059   -1.0419    0.0000 C   0  0  0  0  0  0  0  0  0  0  0  0
    9.4822   -0.5695    0.0000 C   0  0  0  0  0  0  0  0  0  0  0  0
    9.0276    0.8599    0.0000 O   0  0  0  0  0  0  0  0  0  0  0  0
    0.3834    4.7686    0.0000 C   0  0  0  0  0  0  0  0  0  0  0  0
   -0.3585    6.0723    0.0000 C   0  0  0  0  0  0  0  0  0  0  0  0
   -1.8585    6.0815    0.0000 C   0  0  0  0  0  0  0  0  0  0  0  0
   -2.6165    4.7872    0.0000 C   0  0  0  0  0  0  0  0  0  0  0  0
   -4.1165    4.7965    0.0000 C   0  0  0  0  0  0  0  0  0  0  0  0
   -4.8584    6.1001    0.0000 O   0  0  0  0  0  0  0  0  0  0  0  0
  -10.8905    0.9412    0.0000 C   0  0  0  0  0  0  0  0  0  0  0  0
  -11.6485   -0.3531    0.0000 C   0  0  0  0  0  0  0  0  0  0  0  0
  1  2  1  0
  2  3  1  0
  3  4  2  0
  4  5  1  0
  5  6  2  0
  6  7  1  0
  7  8  2  0
  8  9  1  0
  9 10  1  0
  6 11  1  0
 11 12  1  0
 12 13  1  0
 13 14  1  0
 14 15  1  0
 15 16  1  0
 16 17  1  0
 17 18  1  0
 18 19  1  0
 19 20  2  0
 20 21  1  0
 21 22  1  0
 22 23  1  0
 23 24  1  0
 24 25  1  0
 25 26  1  0
 26 27  1  0
 27 28  1  0
 28 29  1  0
 29 30  2  0
 29 31  1  0
 31 32  2  0
 32 33  1  0
 33 34  2  0
 34 35  1  0
 35 36  1  0
 35 37  1  0
 34 38  1  0
 38 39  2  0
 39 40  1  0
 40 41  2  0
 20 42  1  0
 42 43  2  0
 43 44  1  0
 44 45  2  0
 45 46  1  0
 46 47  2  0
 12 48  1  0
 48 49  1  0
  8  3  1  0
 46 16  1  0
 49  5  1  0
 45 19  1  0
 40 28  1  0
 39 31  1  0
M  END
>  <Ki>  (30) 
10.2

>  <database>  (30) 
SRSLDB

$$$$

     RDKit          2D

 31 34  0  0  0  0  0  0  0  0999 V2000
   -5.5559   -2.2819    0.0000 C   0  0  0  0  0  0  0  0  0  0  0  0
   -4.1467   -1.7679    0.0000 O   0  0  0  0  0  0  0  0  0  0  0  0
   -3.8873   -0.2905    0.0000 C   0  0  0  0  0  0  0  0  0  0  0  0
   -5.0371    0.6729    0.0000 C   0  0  0  0  0  0  0  0  0  0  0  0
   -4.7777    2.1503    0.0000 C   0  0  0  0  0  0  0  0  0  0  0  0
   -3.3685    2.6643    0.0000 C   0  0  0  0  0  0  0  0  0  0  0  0
   -3.1091    4.1417    0.0000 C   0  0  0  0  0  0  0  0  0  0  0  0
   -2.2187    1.7010    0.0000 C   0  0  0  0  0  0  0  0  0  0  0  0
   -2.4781    0.2236    0.0000 C   0  0  0  0  0  0  0  0  0  0  0  0
   -1.3284   -0.7398    0.0000 N   0  0  0  0  0  0  0  0  0  0  0  0
    0.0808   -0.2257    0.0000 C   0  0  0  0  0  0  0  0  0  0  0  0
    0.3402    1.2517    0.0000 O   0  0  0  0  0  0  0  0  0  0  0  0
    1.2306   -1.1890    0.0000 O   0  0  0  0  0  0  0  0  0  0  0  0
    2.6397   -0.6750    0.0000 C   0  0  0  0  0  0  0  0  0  0  0  0
    3.7895   -1.6383    0.0000 C   0  0  0  0  0  0  0  0  0  0  0  0
    5.1987   -1.1243    0.0000 C   0  0  0  0  0  0  0  0  0  0  0  0
    6.6078   -0.6102    0.0000 C   0  0  0  0  0  0  0  0  0  0  0  0
    6.8672    0.8672    0.0000 C   0  0  0  0  0  0  0  0  0  0  0  0
    5.7175    1.8305    0.0000 C   0  0  0  0  0  0  0  0  0  0  0  0
    4.3083    1.3165    0.0000 C   0  0  0  0  0  0  0  0  0  0  0  0
    2.8991    0.8024    0.0000 C   0  0  0  0  0  0  0  0  0  0  0  0
    4.0489   -0.1609    0.0000 N   0  0  0  0  0  0  0  0  0  0  0  0
    2.6397   -0.6750    0.0000 C   0  0  0  0  0  0  0  0  0  0  0  0
    1.4900    0.2884    0.0000 C   0  0  0  0  0  0  0  0  0  0  0  0
    0.0808   -0.2257    0.0000 C   0  0  0  0  0  0  0  0  0  0  0  0
   -1.0690    0.7376    0.0000 C   0  0  0  0  0  0  0  0  0  0  0  0
   -2.4781    0.2236    0.0000 C   0  0  0  0  0  0  0  0  0  0  0  0
   -2.7375   -1.2538    0.0000 C   0  0  0  0  0  0  0  0  0  0  0  0
   -3.9804   -2.0936    0.0000 N   0  0  0  0  0  0  0  0  0  0  0  0
   -1.5878   -2.2172    0.0000 C   0  0  0  0  0  0  0  0  0  0  0  0
   -0.1786   -1.7031    0.0000 C   0  0  0  0  0  0  0  0  0  0  0  0
  1  2  1  0
  2  3  1  0
  3  4  2  0
  4  5  1  0
  5  6  2  0
  6  7  1  0
  6  8  1  0
  8  9  2  0
  9 10  1  0
 10 11  1  0
 11 12  2  0
 11 13  1  0
 13 14  1  0
 14 15  1  0
 15 16  1  0
 16 17  1  0
 17 18  1  0
 18 19  1  0
 19 20  1  0
 20 21  1  0
 20 22  1  0
 22 23  1  0
 23 24  1  0
 24 25  1  0
 25 26  2  0
 26 27  1  0
 27 28  2  0
 28 29  1  0
 28 30  1  0
 30 31  2  0
  9  3  1  0
 21 14  1  0
 31 25  1  0
 22 16  1  0
M  END
>  <Ki>  (31) 
5.0

>  <database>  (31) 
SRSLDB

$$$$

     RDKit          2D

 37 40  0  0  0  0  0  0  0  0999 V2000
  -13.1774    0.3517    0.0000 C   0  0  0  0  0  0  0  0  0  0  0  0
  -12.2013   -0.7873    0.0000 O   0  0  0  0  0  0  0  0  0  0  0  0
  -10.7269   -0.5114    0.0000 C   0  0  0  0  0  0  0  0  0  0  0  0
  -10.2286    0.9034    0.0000 C   0  0  0  0  0  0  0  0  0  0  0  0
   -8.7542    1.1792    0.0000 C   0  0  0  0  0  0  0  0  0  0  0  0
   -7.7781    0.0402    0.0000 C   0  0  0  0  0  0  0  0  0  0  0  0
   -8.2764   -1.3746    0.0000 C   0  0  0  0  0  0  0  0  0  0  0  0
   -9.7508   -1.6504    0.0000 C   0  0  0  0  0  0  0  0  0  0  0  0
  -10.2491   -3.0652    0.0000 O   0  0  0  0  0  0  0  0  0  0  0  0
   -9.2730   -4.2042    0.0000 C   0  0  0  0  0  0  0  0  0  0  0  0
   -6.3036    0.3161    0.0000 C   0  0  0  0  0  0  0  0  0  0  0  0
   -5.8053    1.7309    0.0000 N   0  0  0  0  0  0  0  0  0  0  0  0
   -4.3309    2.0067    0.0000 C   0  0  0  0  0  0  0  0  0  0  0  0
   -3.3548    0.8678    0.0000 C   0  0  0  0  0  0  0  0  0  0  0  0
   -1.8804    1.1436    0.0000 C   0  0  0  0  0  0  0  0  0  0  0  0
   -0.9043    0.0046    0.0000 C   0  0  0  0  0  0  0  0  0  0  0  0
    0.5701    0.2805    0.0000 N   0  0  0  0  0  0  0  0  0  0  0  0
    1.5462   -0.8585    0.0000 C   0  0  0  0  0  0  0  0  0  0  0  0
    1.0479   -2.2733    0.0000 O   0  0  0  0  0  0  0  0  0  0  0  0
    3.0207   -0.5826    0.0000 C   0  0  0  0  0  0  0  0  0  0  0  0
    3.6641    0.7723    0.0000 C   0  0  0  0  0  0  0  0  0  0  0  0
    5.1516    0.5791    0.0000 N   0  0  0  0  0  0  0  0  0  0  0  0
    6.1823    1.6689    0.0000 C   0  0  0  0  0  0  0  0  0  0  0  0
    7.6415    1.3212    0.0000 C   0  0  0  0  0  0  0  0  0  0  0  0
    8.0699   -0.1164    0.0000 C   0  0  0  0  0  0  0  0  0  0  0  0
    9.5291   -0.4641    0.0000 C   0  0  0  0  0  0  0  0  0  0  0  0
   10.5598    0.6257    0.0000 C   0  0  0  0  0  0  0  0  0  0  0  0
   12.0189    0.2780    0.0000 O   0  0  0  0  0  0  0  0  0  0  0  0
   12.4473   -1.1595    0.0000 C   0  0  0  0  0  0  0  0  0  0  0  0
   13.9065   -1.5072    0.0000 C   0  0  0  0  0  0  0  0  0  0  0  0
   14.3349   -2.9447    0.0000 F   0  0  0  0  0  0  0  0  0  0  0  0
   10.1313    2.0633    0.0000 C   0  0  0  0  0  0  0  0  0  0  0  0
    8.6722    2.4110    0.0000 C   0  0  0  0  0  0  0  0  0  0  0  0
    5.4275   -0.8954    0.0000 N   0  0  0  0  0  0  0  0  0  0  0  0
    4.1105   -1.6133    0.0000 N   0  0  0  0  0  0  0  0  0  0  0  0
   -6.7814    2.8698    0.0000 C   0  0  0  0  0  0  0  0  0  0  0  0
   -8.2558    2.5940    0.0000 C   0  0  0  0  0  0  0  0  0  0  0  0
  1  2  1  0
  2  3  1  0
  3  4  2  0
  4  5  1  0
  5  6  2  0
  6  7  1  0
  7  8  2  0
  8  9  1  0
  9 10  1  0
  6 11  1  0
 11 12  1  0
 12 13  1  0
 13 14  1  0
 14 15  1  0
 15 16  1  0
 16 17  1  0
 17 18  1  0
 18 19  2  0
 18 20  1  0
 20 21  2  0
 21 22  1  0
 22 23  1  0
 23 24  1  0
 24 25  2  0
 25 26  1  0
 26 27  2  0
 27 28  1  0
 28 29  1  0
 29 30  1  0
 30 31  1  0
 27 32  1  0
 32 33  2  0
 22 34  1  0
 34 35  2  0
 12 36  1  0
 36 37  1  0
  8  3  1  0
 35 20  1  0
 37  5  1  0
 33 24  1  0
M  END
>  <ChemBL_ID>  (32) 
CHEMBL3262528

>  <Ki>  (32) 
48.2

>  <database>  (32) 
SRSLDB

$$$$

     RDKit          2D

 39 42  0  0  0  0  0  0  0  0999 V2000
  -10.9269   -0.0372    0.0000 C   0  0  0  0  0  0  0  0  0  0  0  0
  -10.0354   -1.2435    0.0000 O   0  0  0  0  0  0  0  0  0  0  0  0
   -8.5450   -1.0747    0.0000 C   0  0  0  0  0  0  0  0  0  0  0  0
   -7.9460    0.3005    0.0000 C   0  0  0  0  0  0  0  0  0  0  0  0
   -6.4555    0.4694    0.0000 C   0  0  0  0  0  0  0  0  0  0  0  0
   -5.5641   -0.7370    0.0000 C   0  0  0  0  0  0  0  0  0  0  0  0
   -6.1630   -2.1122    0.0000 C   0  0  0  0  0  0  0  0  0  0  0  0
   -7.6535   -2.2810    0.0000 C   0  0  0  0  0  0  0  0  0  0  0  0
   -8.2525   -3.6562    0.0000 O   0  0  0  0  0  0  0  0  0  0  0  0
   -7.3610   -4.8626    0.0000 C   0  0  0  0  0  0  0  0  0  0  0  0
   -4.0736   -0.5681    0.0000 C   0  0  0  0  0  0  0  0  0  0  0  0
   -3.4746    0.8071    0.0000 N   0  0  0  0  0  0  0  0  0  0  0  0
   -1.9841    0.9760    0.0000 C   0  0  0  0  0  0  0  0  0  0  0  0
   -1.0927   -0.2304    0.0000 C   0  0  0  0  0  0  0  0  0  0  0  0
    0.3978   -0.0615    0.0000 C   0  0  0  0  0  0  0  0  0  0  0  0
    1.2893   -1.2678    0.0000 C   0  0  0  0  0  0  0  0  0  0  0  0
    2.7797   -1.0990    0.0000 N   0  0  0  0  0  0  0  0  0  0  0  0
    3.6712   -2.3053    0.0000 C   0  0  0  0  0  0  0  0  0  0  0  0
    3.0722   -3.6805    0.0000 O   0  0  0  0  0  0  0  0  0  0  0  0
    5.1617   -2.1365    0.0000 C   0  0  0  0  0  0  0  0  0  0  0  0
    6.0532   -3.3428    0.0000 C   0  0  0  0  0  0  0  0  0  0  0  0
    7.5436   -3.1740    0.0000 C   0  0  0  0  0  0  0  0  0  0  0  0
    8.4351   -4.3803    0.0000 C   0  0  0  0  0  0  0  0  0  0  0  0
    9.3266   -5.5867    0.0000 N   0  0  0  0  0  0  0  0  0  0  0  0
    8.1426   -1.7987    0.0000 C   0  0  0  0  0  0  0  0  0  0  0  0
    7.2511   -0.5924    0.0000 C   0  0  0  0  0  0  0  0  0  0  0  0
    5.7607   -0.7613    0.0000 C   0  0  0  0  0  0  0  0  0  0  0  0
    4.8692    0.4451    0.0000 O   0  0  0  0  0  0  0  0  0  0  0  0
    5.4682    1.8203    0.0000 C   0  0  0  0  0  0  0  0  0  0  0  0
    4.5767    3.0267    0.0000 C   0  0  0  0  0  0  0  0  0  0  0  0
    3.0768    3.0145    0.0000 C   0  0  0  0  0  0  0  0  0  0  0  0
    2.6017    4.4373    0.0000 N   0  0  0  0  0  0  0  0  0  0  0  0
    1.1714    4.8893    0.0000 C   0  0  0  0  0  0  0  0  0  0  0  0
    0.8477    6.3539    0.0000 C   0  0  0  0  0  0  0  0  0  0  0  0
   -0.5826    6.8059    0.0000 F   0  0  0  0  0  0  0  0  0  0  0  0
    3.8081    5.3288    0.0000 N   0  0  0  0  0  0  0  0  0  0  0  0
    5.0287    4.4569    0.0000 N   0  0  0  0  0  0  0  0  0  0  0  0
   -4.3661    2.0135    0.0000 C   0  0  0  0  0  0  0  0  0  0  0  0
   -5.8565    1.8446    0.0000 C   0  0  0  0  0  0  0  0  0  0  0  0
  1  2  1  0
  2  3  1  0
  3  4  2  0
  4  5  1  0
  5  6  2  0
  6  7  1  0
  7  8  2  0
  8  9  1  0
  9 10  1  0
  6 11  1  0
 11 12  1  0
 12 13  1  0
 13 14  1  0
 14 15  1  0
 15 16  1  0
 16 17  1  0
 17 18  1  0
 18 19  2  0
 18 20  1  0
 20 21  2  0
 21 22  1  0
 22 23  1  0
 23 24  3  0
 22 25  2  0
 25 26  1  0
 26 27  2  0
 27 28  1  0
 28 29  1  0
 29 30  1  0
 30 31  2  0
 31 32  1  0
 32 33  1  0
 33 34  1  0
 34 35  1  0
 32 36  1  0
 36 37  2  0
 12 38  1  0
 38 39  1  0
  8  3  1  0
 27 20  1  0
 37 30  1  0
 39  5  1  0
M  END
>  <ChemBL_ID>  (33) 
CHEMBL3262789

>  <Ki>  (33) 
31.9

>  <database>  (33) 
SRSLDB

$$$$

     RDKit          2D

 32 35  0  0  0  0  0  0  0  0999 V2000
  -11.9655   -0.1028    0.0000 C   0  0  0  0  0  0  0  0  0  0  0  0
  -10.5984   -0.7200    0.0000 O   0  0  0  0  0  0  0  0  0  0  0  0
   -9.3802    0.1553    0.0000 C   0  0  0  0  0  0  0  0  0  0  0  0
   -9.5292    1.6479    0.0000 C   0  0  0  0  0  0  0  0  0  0  0  0
   -8.3111    2.5232    0.0000 C   0  0  0  0  0  0  0  0  0  0  0  0
   -6.9440    1.9059    0.0000 C   0  0  0  0  0  0  0  0  0  0  0  0
   -6.7950    0.4133    0.0000 C   0  0  0  0  0  0  0  0  0  0  0  0
   -5.4279   -0.2039    0.0000 N   0  0  0  0  0  0  0  0  0  0  0  0
   -4.1250    0.5393    0.0000 C   0  0  0  0  0  0  0  0  0  0  0  0
   -3.0155   -0.4702    0.0000 C   0  0  0  0  0  0  0  0  0  0  0  0
   -1.5467   -0.1660    0.0000 C   0  0  0  0  0  0  0  0  0  0  0  0
   -1.0757    1.2581    0.0000 O   0  0  0  0  0  0  0  0  0  0  0  0
   -0.5488   -1.2860    0.0000 N   0  0  0  0  0  0  0  0  0  0  0  0
    0.9200   -0.9818    0.0000 C   0  0  0  0  0  0  0  0  0  0  0  0
    1.9179   -2.1017    0.0000 C   0  0  0  0  0  0  0  0  0  0  0  0
    3.3867   -1.7975    0.0000 N   0  0  0  0  0  0  0  0  0  0  0  0
    4.3846   -2.9175    0.0000 C   0  0  0  0  0  0  0  0  0  0  0  0
    5.8534   -2.6133    0.0000 C   0  0  0  0  0  0  0  0  0  0  0  0
    6.3244   -1.1891    0.0000 C   0  0  0  0  0  0  0  0  0  0  0  0
    7.7932   -0.8850    0.0000 C   0  0  0  0  0  0  0  0  0  0  0  0
    8.2642    0.5392    0.0000 C   0  0  0  0  0  0  0  0  0  0  0  0
    9.7330    0.8434    0.0000 O   0  0  0  0  0  0  0  0  0  0  0  0
   10.7309   -0.2766    0.0000 C   0  0  0  0  0  0  0  0  0  0  0  0
    7.2663    1.6591    0.0000 C   0  0  0  0  0  0  0  0  0  0  0  0
    7.7373    3.0833    0.0000 O   0  0  0  0  0  0  0  0  0  0  0  0
    6.7394    4.2032    0.0000 C   0  0  0  0  0  0  0  0  0  0  0  0
    5.7975    1.3549    0.0000 C   0  0  0  0  0  0  0  0  0  0  0  0
    5.3265   -0.0692    0.0000 C   0  0  0  0  0  0  0  0  0  0  0  0
    3.8577   -0.3734    0.0000 C   0  0  0  0  0  0  0  0  0  0  0  0
   -3.6328   -1.8373    0.0000 N   0  0  0  0  0  0  0  0  0  0  0  0
   -5.1237   -1.6727    0.0000 N   0  0  0  0  0  0  0  0  0  0  0  0
   -8.0131   -0.4620    0.0000 C   0  0  0  0  0  0  0  0  0  0  0  0
  1  2  1  0
  2  3  1  0
  3  4  2  0
  4  5  1  0
  5  6  2  0
  6  7  1  0
  7  8  1  0
  8  9  1  0
  9 10  2  0
 10 11  1  0
 11 12  2  0
 11 13  1  0
 13 14  1  0
 14 15  1  0
 15 16  1  0
 16 17  1  0
 17 18  1  0
 18 19  1  0
 19 20  2  0
 20 21  1  0
 21 22  1  0
 22 23  1  0
 21 24  2  0
 24 25  1  0
 25 26  1  0
 24 27  1  0
 27 28  2  0
 28 29  1  0
 10 30  1  0
 30 31  2  0
  7 32  2  0
 32  3  1  0
 31  8  1  0
 29 16  1  0
 28 19  1  0
M  END
>  <ChemBL_ID>  (34) 
CHEMBL3262530

>  <Ki>  (34) 
180.0

>  <database>  (34) 
SRSLDB

$$$$

     RDKit          2D

 41 45  0  0  0  0  0  0  0  0999 V2000
  -10.3148    5.3482    0.0000 C   0  0  0  0  0  0  0  0  0  0  0  0
  -11.4287    4.3436    0.0000 O   0  0  0  0  0  0  0  0  0  0  0  0
  -11.1157    2.8766    0.0000 C   0  0  0  0  0  0  0  0  0  0  0  0
   -9.6887    2.4143    0.0000 C   0  0  0  0  0  0  0  0  0  0  0  0
   -9.3757    0.9473    0.0000 C   0  0  0  0  0  0  0  0  0  0  0  0
  -10.4896   -0.0573    0.0000 C   0  0  0  0  0  0  0  0  0  0  0  0
  -10.1766   -1.5243    0.0000 C   0  0  0  0  0  0  0  0  0  0  0  0
   -8.7496   -1.9867    0.0000 N   0  0  0  0  0  0  0  0  0  0  0  0
   -7.5368   -1.1040    0.0000 C   0  0  0  0  0  0  0  0  0  0  0  0
   -6.3225   -1.9847    0.0000 C   0  0  0  0  0  0  0  0  0  0  0  0
   -4.8963   -1.5200    0.0000 C   0  0  0  0  0  0  0  0  0  0  0  0
   -3.7808   -2.5228    0.0000 C   0  0  0  0  0  0  0  0  0  0  0  0
   -2.3546   -2.0581    0.0000 C   0  0  0  0  0  0  0  0  0  0  0  0
   -2.0439   -0.5907    0.0000 C   0  0  0  0  0  0  0  0  0  0  0  0
   -0.6177   -0.1260    0.0000 C   0  0  0  0  0  0  0  0  0  0  0  0
   -0.3070    1.3415    0.0000 O   0  0  0  0  0  0  0  0  0  0  0  0
    0.4978   -1.1288    0.0000 N   0  0  0  0  0  0  0  0  0  0  0  0
    1.9240   -0.6641    0.0000 C   0  0  0  0  0  0  0  0  0  0  0  0
    3.0396   -1.6669    0.0000 C   0  0  0  0  0  0  0  0  0  0  0  0
    4.4658   -1.2022    0.0000 C   0  0  0  0  0  0  0  0  0  0  0  0
    5.5813   -2.2050    0.0000 C   0  0  0  0  0  0  0  0  0  0  0  0
    7.0075   -1.7404    0.0000 N   0  0  0  0  0  0  0  0  0  0  0  0
    8.1230   -2.7432    0.0000 C   0  0  0  0  0  0  0  0  0  0  0  0
    9.5492   -2.2785    0.0000 C   0  0  0  0  0  0  0  0  0  0  0  0
    9.8599   -0.8110    0.0000 C   0  0  0  0  0  0  0  0  0  0  0  0
   11.2861   -0.3464    0.0000 C   0  0  0  0  0  0  0  0  0  0  0  0
   11.5968    1.1211    0.0000 C   0  0  0  0  0  0  0  0  0  0  0  0
   13.0230    1.5858    0.0000 O   0  0  0  0  0  0  0  0  0  0  0  0
   14.1386    0.5830    0.0000 C   0  0  0  0  0  0  0  0  0  0  0  0
   10.4813    2.1239    0.0000 C   0  0  0  0  0  0  0  0  0  0  0  0
   10.7920    3.5914    0.0000 O   0  0  0  0  0  0  0  0  0  0  0  0
    9.6765    4.5942    0.0000 C   0  0  0  0  0  0  0  0  0  0  0  0
    9.0551    1.6592    0.0000 C   0  0  0  0  0  0  0  0  0  0  0  0
    8.7444    0.1918    0.0000 C   0  0  0  0  0  0  0  0  0  0  0  0
    7.3182   -0.2729    0.0000 C   0  0  0  0  0  0  0  0  0  0  0  0
   -3.1594    0.4121    0.0000 C   0  0  0  0  0  0  0  0  0  0  0  0
   -4.5856   -0.0526    0.0000 C   0  0  0  0  0  0  0  0  0  0  0  0
   -6.7849   -3.4117    0.0000 N   0  0  0  0  0  0  0  0  0  0  0  0
   -8.2849   -3.4129    0.0000 N   0  0  0  0  0  0  0  0  0  0  0  0
  -11.9166    0.4051    0.0000 C   0  0  0  0  0  0  0  0  0  0  0  0
  -12.2296    1.8720    0.0000 C   0  0  0  0  0  0  0  0  0  0  0  0
  1  2  1  0
  2  3  1  0
  3  4  2  0
  4  5  1  0
  5  6  2  0
  6  7  1  0
  7  8  1  0
  8  9  1  0
  9 10  2  0
 10 11  1  0
 11 12  2  0
 12 13  1  0
 13 14  2  0
 14 15  1  0
 15 16  2  0
 15 17  1  0
 17 18  1  0
 18 19  1  0
 19 20  1  0
 20 21  1  0
 21 22  1  0
 22 23  1  0
 23 24  1  0
 24 25  1  0
 25 26  2  0
 26 27  1  0
 27 28  1  0
 28 29  1  0
 27 30  2  0
 30 31  1  0
 31 32  1  0
 30 33  1  0
 33 34  2  0
 34 35  1  0
 14 36  1  0
 36 37  2  0
 10 38  1  0
 38 39  2  0
  6 40  1  0
 40 41  2  0
 41  3  1  0
 39  8  1  0
 37 11  1  0
 35 22  1  0
 34 25  1  0
M  END
>  <ChemBL_ID>  (35) 
CHEMBL3262786

>  <Ki>  (35) 
31.4

>  <database>  (35) 
SRSLDB

$$$$

     RDKit          2D

 38 41  0  0  0  0  0  0  0  0999 V2000
  -12.5666   -1.0254    0.0000 C   0  0  0  0  0  0  0  0  0  0  0  0
  -11.3956   -1.9628    0.0000 O   0  0  0  0  0  0  0  0  0  0  0  0
   -9.9983   -1.4174    0.0000 C   0  0  0  0  0  0  0  0  0  0  0  0
   -9.7720    0.0654    0.0000 C   0  0  0  0  0  0  0  0  0  0  0  0
   -8.3747    0.6109    0.0000 C   0  0  0  0  0  0  0  0  0  0  0  0
   -7.2037   -0.3265    0.0000 C   0  0  0  0  0  0  0  0  0  0  0  0
   -7.4300   -1.8094    0.0000 C   0  0  0  0  0  0  0  0  0  0  0  0
   -8.8273   -2.3548    0.0000 C   0  0  0  0  0  0  0  0  0  0  0  0
   -9.0536   -3.8376    0.0000 O   0  0  0  0  0  0  0  0  0  0  0  0
   -7.8826   -4.7750    0.0000 C   0  0  0  0  0  0  0  0  0  0  0  0
   -5.8063    0.2189    0.0000 C   0  0  0  0  0  0  0  0  0  0  0  0
   -5.5800    1.7017    0.0000 N   0  0  0  0  0  0  0  0  0  0  0  0
   -4.1827    2.2472    0.0000 C   0  0  0  0  0  0  0  0  0  0  0  0
   -3.0117    1.3098    0.0000 C   0  0  0  0  0  0  0  0  0  0  0  0
   -1.6144    1.8552    0.0000 C   0  0  0  0  0  0  0  0  0  0  0  0
   -0.4434    0.9178    0.0000 C   0  0  0  0  0  0  0  0  0  0  0  0
    0.9540    1.4632    0.0000 N   0  0  0  0  0  0  0  0  0  0  0  0
    2.1250    0.5258    0.0000 C   0  0  0  0  0  0  0  0  0  0  0  0
    1.8987   -0.9570    0.0000 O   0  0  0  0  0  0  0  0  0  0  0  0
    3.5223    1.0713    0.0000 C   0  0  0  0  0  0  0  0  0  0  0  0
    4.6933    0.1339    0.0000 C   0  0  0  0  0  0  0  0  0  0  0  0
    6.0906    0.6793    0.0000 C   0  0  0  0  0  0  0  0  0  0  0  0
    7.2616   -0.2581    0.0000 N   0  0  0  0  0  0  0  0  0  0  0  0
    8.7083    0.1383    0.0000 C   0  0  0  0  0  0  0  0  0  0  0  0
    9.5324   -1.1151    0.0000 C   0  0  0  0  0  0  0  0  0  0  0  0
   11.0307   -1.1852    0.0000 C   0  0  0  0  0  0  0  0  0  0  0  0
   11.7192   -2.5178    0.0000 N   0  0  0  0  0  0  0  0  0  0  0  0
   13.2176   -2.5879    0.0000 C   0  0  0  0  0  0  0  0  0  0  0  0
   10.9094   -3.7804    0.0000 C   0  0  0  0  0  0  0  0  0  0  0  0
    8.5950   -2.2861    0.0000 N   0  0  0  0  0  0  0  0  0  0  0  0
    7.1916   -1.7565    0.0000 N   0  0  0  0  0  0  0  0  0  0  0  0
    6.3169    2.1621    0.0000 C   0  0  0  0  0  0  0  0  0  0  0  0
    5.1459    3.0995    0.0000 C   0  0  0  0  0  0  0  0  0  0  0  0
    3.7486    2.5541    0.0000 C   0  0  0  0  0  0  0  0  0  0  0  0
    2.5776    3.4915    0.0000 O   0  0  0  0  0  0  0  0  0  0  0  0
    2.8039    4.9743    0.0000 C   0  0  0  0  0  0  0  0  0  0  0  0
   -6.7511    2.6391    0.0000 C   0  0  0  0  0  0  0  0  0  0  0  0
   -8.1484    2.0937    0.0000 C   0  0  0  0  0  0  0  0  0  0  0  0
  1  2  1  0
  2  3  1  0
  3  4  2  0
  4  5  1  0
  5  6  2  0
  6  7  1  0
  7  8  2  0
  8  9  1  0
  9 10  1  0
  6 11  1  0
 11 12  1  0
 12 13  1  0
 13 14  1  0
 14 15  1  0
 15 16  1  0
 16 17  1  0
 17 18  1  0
 18 19  2  0
 18 20  1  0
 20 21  2  0
 21 22  1  0
 22 23  1  0
 23 24  1  0
 24 25  2  0
 25 26  1  0
 26 27  1  0
 27 28  1  0
 27 29  1  0
 25 30  1  0
 30 31  2  0
 22 32  2  0
 32 33  1  0
 33 34  2  0
 34 35  1  0
 35 36  1  0
 12 37  1  0
 37 38  1  0
  8  3  1  0
 34 20  1  0
 38  5  1  0
 31 23  1  0
M  END
>  <ChemBL_ID>  (36) 
CHEMBL3262790

>  <Ki>  (36) 
56.8

>  <database>  (36) 
SRSLDB

$$$$

     RDKit          2D

 38 41  0  0  0  0  0  0  0  0999 V2000
   -3.3587   -2.9032    0.0000 C   0  0  0  0  0  0  0  0  0  0  0  0
   -1.9769   -2.3195    0.0000 O   0  0  0  0  0  0  0  0  0  0  0  0
   -1.7915   -0.8310    0.0000 C   0  0  0  0  0  0  0  0  0  0  0  0
   -2.9879    0.0738    0.0000 C   0  0  0  0  0  0  0  0  0  0  0  0
   -2.8025    1.5623    0.0000 C   0  0  0  0  0  0  0  0  0  0  0  0
   -1.4207    2.1460    0.0000 C   0  0  0  0  0  0  0  0  0  0  0  0
   -1.2353    3.6345    0.0000 C   0  0  0  0  0  0  0  0  0  0  0  0
   -0.2244    1.2412    0.0000 C   0  0  0  0  0  0  0  0  0  0  0  0
   -0.4097   -0.2473    0.0000 C   0  0  0  0  0  0  0  0  0  0  0  0
    0.7866   -1.1521    0.0000 N   0  0  0  0  0  0  0  0  0  0  0  0
    2.1684   -0.5684    0.0000 C   0  0  0  0  0  0  0  0  0  0  0  0
    2.3538    0.9201    0.0000 O   0  0  0  0  0  0  0  0  0  0  0  0
    3.3648   -1.4732    0.0000 O   0  0  0  0  0  0  0  0  0  0  0  0
    4.7466   -0.8895    0.0000 C   0  0  0  0  0  0  0  0  0  0  0  0
    5.9429   -1.7943    0.0000 C   0  0  0  0  0  0  0  0  0  0  0  0
    7.3247   -1.2106    0.0000 C   0  0  0  0  0  0  0  0  0  0  0  0
    8.7065   -0.6269    0.0000 C   0  0  0  0  0  0  0  0  0  0  0  0
    8.8919    0.8616    0.0000 C   0  0  0  0  0  0  0  0  0  0  0  0
    7.6955    1.7664    0.0000 C   0  0  0  0  0  0  0  0  0  0  0  0
    6.3137    1.1827    0.0000 C   0  0  0  0  0  0  0  0  0  0  0  0
    4.9320    0.5990    0.0000 C   0  0  0  0  0  0  0  0  0  0  0  0
    6.1283   -0.3058    0.0000 N   0  0  0  0  0  0  0  0  0  0  0  0
    4.7466   -0.8895    0.0000 C   0  0  0  0  0  0  0  0  0  0  0  0
    3.5502    0.0153    0.0000 C   0  0  0  0  0  0  0  0  0  0  0  0
    2.1684   -0.5684    0.0000 C   0  0  0  0  0  0  0  0  0  0  0  0
    0.9720    0.3364    0.0000 C   0  0  0  0  0  0  0  0  0  0  0  0
   -0.4097   -0.2473    0.0000 C   0  0  0  0  0  0  0  0  0  0  0  0
   -1.6061    0.6575    0.0000 C   0  0  0  0  0  0  0  0  0  0  0  0
   -2.9879    0.0738    0.0000 N   0  0  0  0  0  0  0  0  0  0  0  0
   -4.1843    0.9786    0.0000 C   0  0  0  0  0  0  0  0  0  0  0  0
   -3.9989    2.4671    0.0000 O   0  0  0  0  0  0  0  0  0  0  0  0
   -5.5661    0.3949    0.0000 C   0  0  0  0  0  0  0  0  0  0  0  0
   -6.7624    1.2997    0.0000 C   0  0  0  0  0  0  0  0  0  0  0  0
   -8.1442    0.7160    0.0000 C   0  0  0  0  0  0  0  0  0  0  0  0
   -8.3296   -0.7725    0.0000 C   0  0  0  0  0  0  0  0  0  0  0  0
   -9.7114   -1.3562    0.0000 Cl  0  0  0  0  0  0  0  0  0  0  0  0
   -7.1332   -1.6773    0.0000 C   0  0  0  0  0  0  0  0  0  0  0  0
   -5.7514   -1.0936    0.0000 C   0  0  0  0  0  0  0  0  0  0  0  0
  1  2  1  0
  2  3  1  0
  3  4  2  0
  4  5  1  0
  5  6  2  0
  6  7  1  0
  6  8  1  0
  8  9  2  0
  9 10  1  0
 10 11  1  0
 11 12  2  0
 11 13  1  0
 13 14  1  0
 14 15  1  0
 15 16  1  0
 16 17  1  0
 17 18  1  0
 18 19  1  0
 19 20  1  0
 20 21  1  0
 20 22  1  0
 22 23  1  0
 23 24  1  0
 24 25  1  0
 25 26  1  0
 26 27  1  0
 27 28  1  0
 28 29  1  0
 29 30  1  0
 30 31  2  0
 30 32  1  0
 32 33  2  0
 33 34  1  0
 34 35  2  0
 35 36  1  0
 35 37  1  0
 37 38  2  0
  9  3  1  0
 21 14  1  0
 38 32  1  0
 22 16  1  0
M  END
>  <Ki>  (37) 
3.56

>  <database>  (37) 
SRSLDB

$$$$

     RDKit          2D

 32 34  0  0  0  0  0  0  0  0999 V2000
  -10.1895    1.8628    0.0000 C   0  0  0  0  0  0  0  0  0  0  0  0
   -9.3072    0.6498    0.0000 O   0  0  0  0  0  0  0  0  0  0  0  0
   -7.8155    0.8073    0.0000 C   0  0  0  0  0  0  0  0  0  0  0  0
   -7.2061    2.1780    0.0000 C   0  0  0  0  0  0  0  0  0  0  0  0
   -5.7144    2.3355    0.0000 C   0  0  0  0  0  0  0  0  0  0  0  0
   -4.8321    1.1224    0.0000 C   0  0  0  0  0  0  0  0  0  0  0  0
   -3.3404    1.2800    0.0000 C   0  0  0  0  0  0  0  0  0  0  0  0
   -2.7310    2.6506    0.0000 O   0  0  0  0  0  0  0  0  0  0  0  0
   -2.4581    0.0669    0.0000 N   0  0  0  0  0  0  0  0  0  0  0  0
   -0.9664    0.2245    0.0000 C   0  0  0  0  0  0  0  0  0  0  0  0
   -0.0841   -0.9886    0.0000 C   0  0  0  0  0  0  0  0  0  0  0  0
    1.4076   -0.8310    0.0000 C   0  0  0  0  0  0  0  0  0  0  0  0
    2.2899   -2.0441    0.0000 C   0  0  0  0  0  0  0  0  0  0  0  0
    3.7816   -1.8865    0.0000 N   0  0  0  0  0  0  0  0  0  0  0  0
    4.6639   -3.0996    0.0000 C   0  0  0  0  0  0  0  0  0  0  0  0
    6.1556   -2.9421    0.0000 C   0  0  0  0  0  0  0  0  0  0  0  0
    6.7650   -1.5714    0.0000 C   0  0  0  0  0  0  0  0  0  0  0  0
    8.2567   -1.4139    0.0000 C   0  0  0  0  0  0  0  0  0  0  0  0
    8.8661   -0.0432    0.0000 C   0  0  0  0  0  0  0  0  0  0  0  0
    7.9838    1.1698    0.0000 C   0  0  0  0  0  0  0  0  0  0  0  0
    8.5932    2.5405    0.0000 N   0  0  0  0  0  4  0  0  0  0  0  0
    7.7109    3.7535    0.0000 O   0  0  0  0  0  0  0  0  0  0  0  0
   10.0849    2.6980    0.0000 O   0  0  0  0  0  1  0  0  0  0  0  0
    6.4921    1.0123    0.0000 C   0  0  0  0  0  0  0  0  0  0  0  0
    5.8827   -0.3583    0.0000 C   0  0  0  0  0  0  0  0  0  0  0  0
    4.3910   -0.5159    0.0000 C   0  0  0  0  0  0  0  0  0  0  0  0
   -5.4415   -0.2482    0.0000 C   0  0  0  0  0  0  0  0  0  0  0  0
   -4.5592   -1.4613    0.0000 O   0  0  0  0  0  0  0  0  0  0  0  0
   -5.1686   -2.8319    0.0000 C   0  0  0  0  0  0  0  0  0  0  0  0
   -6.9332   -0.4057    0.0000 C   0  0  0  0  0  0  0  0  0  0  0  0
   -7.5426   -1.7764    0.0000 O   0  0  0  0  0  0  0  0  0  0  0  0
   -9.0343   -1.9339    0.0000 C   0  0  0  0  0  0  0  0  0  0  0  0
  1  2  1  0
  2  3  1  0
  3  4  2  0
  4  5  1  0
  5  6  2  0
  6  7  1  0
  7  8  2  0
  7  9  1  0
  9 10  1  0
 10 11  1  0
 11 12  1  0
 12 13  1  0
 13 14  1  0
 14 15  1  0
 15 16  1  0
 16 17  1  0
 17 18  2  0
 18 19  1  0
 19 20  2  0
 20 21  1  0
 21 22  2  0
 21 23  1  0
 20 24  1  0
 24 25  2  0
 25 26  1  0
  6 27  1  0
 27 28  1  0
 28 29  1  0
 27 30  2  0
 30 31  1  0
 31 32  1  0
 30  3  1  0
 26 14  1  0
 25 17  1  0
M  CHG  2  21   1  23  -1
M  END
>  <ChemBL_ID>  (38) 
CHEMBL1927694

>  <Ki>  (38) 
26.8

>  <database>  (38) 
SRSLDB

$$$$

     RDKit          2D

 33 36  0  0  0  0  0  0  0  0999 V2000
  -10.8354    3.4627    0.0000 C   0  0  0  0  0  0  0  0  0  0  0  0
  -10.4237    2.0203    0.0000 O   0  0  0  0  0  0  0  0  0  0  0  0
   -8.9687    1.6556    0.0000 C   0  0  0  0  0  0  0  0  0  0  0  0
   -7.9254    2.7333    0.0000 C   0  0  0  0  0  0  0  0  0  0  0  0
   -6.4704    2.3686    0.0000 C   0  0  0  0  0  0  0  0  0  0  0  0
   -6.0587    0.9262    0.0000 C   0  0  0  0  0  0  0  0  0  0  0  0
   -7.1021   -0.1516    0.0000 C   0  0  0  0  0  0  0  0  0  0  0  0
   -6.6904   -1.5940    0.0000 C   0  0  0  0  0  0  0  0  0  0  0  0
   -5.2354   -1.9587    0.0000 N   0  0  0  0  0  0  0  0  0  0  0  0
   -4.0852   -0.9959    0.0000 C   0  0  0  0  0  0  0  0  0  0  0  0
   -2.8141   -1.7924    0.0000 C   0  0  0  0  0  0  0  0  0  0  0  0
   -1.4226   -1.2322    0.0000 C   0  0  0  0  0  0  0  0  0  0  0  0
   -1.2120    0.2529    0.0000 O   0  0  0  0  0  0  0  0  0  0  0  0
   -0.2418   -2.1572    0.0000 N   0  0  0  0  0  0  0  0  0  0  0  0
    1.1497   -1.5970    0.0000 C   0  0  0  0  0  0  0  0  0  0  0  0
    2.3306   -2.5220    0.0000 C   0  0  0  0  0  0  0  0  0  0  0  0
    3.7221   -1.9618    0.0000 N   0  0  0  0  0  0  0  0  0  0  0  0
    4.9029   -2.8868    0.0000 C   0  0  0  0  0  0  0  0  0  0  0  0
    6.2944   -2.3266    0.0000 C   0  0  0  0  0  0  0  0  0  0  0  0
    6.5050   -0.8415    0.0000 C   0  0  0  0  0  0  0  0  0  0  0  0
    7.8965   -0.2813    0.0000 C   0  0  0  0  0  0  0  0  0  0  0  0
    8.1071    1.2038    0.0000 C   0  0  0  0  0  0  0  0  0  0  0  0
    9.4986    1.7640    0.0000 O   0  0  0  0  0  0  0  0  0  0  0  0
   10.6794    0.8390    0.0000 C   0  0  0  0  0  0  0  0  0  0  0  0
    6.9263    2.1288    0.0000 C   0  0  0  0  0  0  0  0  0  0  0  0
    7.1369    3.6139    0.0000 O   0  0  0  0  0  0  0  0  0  0  0  0
    5.9560    4.5389    0.0000 C   0  0  0  0  0  0  0  0  0  0  0  0
    5.5348    1.5686    0.0000 C   0  0  0  0  0  0  0  0  0  0  0  0
    5.3242    0.0835    0.0000 C   0  0  0  0  0  0  0  0  0  0  0  0
    3.9327   -0.4767    0.0000 C   0  0  0  0  0  0  0  0  0  0  0  0
   -3.1788   -3.2474    0.0000 N   0  0  0  0  0  0  0  0  0  0  0  0
   -4.6753   -3.3501    0.0000 N   0  0  0  0  0  0  0  0  0  0  0  0
   -8.5571    0.2132    0.0000 C   0  0  0  0  0  0  0  0  0  0  0  0
  1  2  1  0
  2  3  1  0
  3  4  2  0
  4  5  1  0
  5  6  2  0
  6  7  1  0
  7  8  1  0
  8  9  1  0
  9 10  1  0
 10 11  2  0
 11 12  1  0
 12 13  2  0
 12 14  1  0
 14 15  1  0
 15 16  1  0
 16 17  1  0
 17 18  1  0
 18 19  1  0
 19 20  1  0
 20 21  2  0
 21 22  1  0
 22 23  1  0
 23 24  1  0
 22 25  2  0
 25 26  1  0
 26 27  1  0
 25 28  1  0
 28 29  2  0
 29 30  1  0
 11 31  1  0
 31 32  2  0
  7 33  2  0
 33  3  1  0
 32  9  1  0
 30 17  1  0
 29 20  1  0
M  END
>  <ChemBL_ID>  (39) 
CHEMBL3262532

>  <Ki>  (39) 
214.0

>  <database>  (39) 
SRSLDB

$$$$

     RDKit          2D

 33 36  0  0  0  0  0  0  0  0999 V2000
  -11.5579    0.7424    0.0000 C   0  0  0  0  0  0  0  0  0  0  0  0
  -10.6373   -0.4418    0.0000 O   0  0  0  0  0  0  0  0  0  0  0  0
   -9.1514   -0.2366    0.0000 C   0  0  0  0  0  0  0  0  0  0  0  0
   -8.5861    1.1528    0.0000 C   0  0  0  0  0  0  0  0  0  0  0  0
   -7.1002    1.3579    0.0000 C   0  0  0  0  0  0  0  0  0  0  0  0
   -6.1796    0.1737    0.0000 C   0  0  0  0  0  0  0  0  0  0  0  0
   -6.7449   -1.2157    0.0000 C   0  0  0  0  0  0  0  0  0  0  0  0
   -8.2308   -1.4209    0.0000 C   0  0  0  0  0  0  0  0  0  0  0  0
   -8.7960   -2.8103    0.0000 O   0  0  0  0  0  0  0  0  0  0  0  0
   -7.8754   -3.9945    0.0000 C   0  0  0  0  0  0  0  0  0  0  0  0
   -4.6937    0.3789    0.0000 C   0  0  0  0  0  0  0  0  0  0  0  0
   -4.1284    1.7683    0.0000 N   0  0  0  0  0  0  0  0  0  0  0  0
   -2.6425    1.9735    0.0000 C   0  0  0  0  0  0  0  0  0  0  0  0
   -1.7219    0.7892    0.0000 C   0  0  0  0  0  0  0  0  0  0  0  0
   -0.2360    0.9944    0.0000 C   0  0  0  0  0  0  0  0  0  0  0  0
    0.6846   -0.1899    0.0000 C   0  0  0  0  0  0  0  0  0  0  0  0
    2.1705    0.0153    0.0000 N   0  0  0  0  0  0  0  0  0  0  0  0
    3.0912   -1.1689    0.0000 C   0  0  0  0  0  0  0  0  0  0  0  0
    2.5259   -2.5583    0.0000 O   0  0  0  0  0  0  0  0  0  0  0  0
    4.5771   -0.9638    0.0000 C   0  0  0  0  0  0  0  0  0  0  0  0
    5.2845    0.3590    0.0000 C   0  0  0  0  0  0  0  0  0  0  0  0
    6.7611    0.0949    0.0000 N   0  0  0  0  0  0  0  0  0  0  0  0
    7.8426    1.1343    0.0000 C   0  0  0  0  0  0  0  0  0  0  0  0
    9.2835    0.7174    0.0000 C   0  0  0  0  0  0  0  0  0  0  0  0
    9.6428   -0.7390    0.0000 C   0  0  0  0  0  0  0  0  0  0  0  0
   11.0837   -1.1559    0.0000 C   0  0  0  0  0  0  0  0  0  0  0  0
   12.1653   -0.1165    0.0000 C   0  0  0  0  0  0  0  0  0  0  0  0
   11.8059    1.3398    0.0000 C   0  0  0  0  0  0  0  0  0  0  0  0
   10.3650    1.7567    0.0000 C   0  0  0  0  0  0  0  0  0  0  0  0
    6.9662   -1.3910    0.0000 N   0  0  0  0  0  0  0  0  0  0  0  0
    5.6165   -2.0453    0.0000 N   0  0  0  0  0  0  0  0  0  0  0  0
   -5.0491    2.9525    0.0000 C   0  0  0  0  0  0  0  0  0  0  0  0
   -6.5350    2.7474    0.0000 C   0  0  0  0  0  0  0  0  0  0  0  0
  1  2  1  0
  2  3  1  0
  3  4  2  0
  4  5  1  0
  5  6  2  0
  6  7  1  0
  7  8  2  0
  8  9  1  0
  9 10  1  0
  6 11  1  0
 11 12  1  0
 12 13  1  0
 13 14  1  0
 14 15  1  0
 15 16  1  0
 16 17  1  0
 17 18  1  0
 18 19  2  0
 18 20  1  0
 20 21  2  0
 21 22  1  0
 22 23  1  0
 23 24  1  0
 24 25  2  0
 25 26  1  0
 26 27  2  0
 27 28  1  0
 28 29  2  0
 22 30  1  0
 30 31  2  0
 12 32  1  0
 32 33  1  0
  8  3  1  0
 31 20  1  0
 33  5  1  0
 29 24  1  0
M  END
>  <ChemBL_ID>  (40) 
CHEMBL3262524

>  <Ki>  (40) 
12.4

>  <database>  (40) 
SRSLDB

$$$$

     RDKit          2D

 34 37  0  0  0  0  0  0  0  0999 V2000
  -11.9249    0.8600    0.0000 C   0  0  0  0  0  0  0  0  0  0  0  0
  -11.0230   -0.3385    0.0000 O   0  0  0  0  0  0  0  0  0  0  0  0
   -9.5341   -0.1568    0.0000 C   0  0  0  0  0  0  0  0  0  0  0  0
   -8.9471    1.2236    0.0000 C   0  0  0  0  0  0  0  0  0  0  0  0
   -7.4581    1.4054    0.0000 C   0  0  0  0  0  0  0  0  0  0  0  0
   -6.5562    0.2068    0.0000 C   0  0  0  0  0  0  0  0  0  0  0  0
   -7.1432   -1.1735    0.0000 C   0  0  0  0  0  0  0  0  0  0  0  0
   -8.6322   -1.3553    0.0000 C   0  0  0  0  0  0  0  0  0  0  0  0
   -9.2192   -2.7357    0.0000 O   0  0  0  0  0  0  0  0  0  0  0  0
   -8.3173   -3.9343    0.0000 C   0  0  0  0  0  0  0  0  0  0  0  0
   -5.0673    0.3886    0.0000 C   0  0  0  0  0  0  0  0  0  0  0  0
   -4.4802    1.7690    0.0000 N   0  0  0  0  0  0  0  0  0  0  0  0
   -2.9913    1.9507    0.0000 C   0  0  0  0  0  0  0  0  0  0  0  0
   -2.0894    0.7522    0.0000 C   0  0  0  0  0  0  0  0  0  0  0  0
   -0.6004    0.9340    0.0000 C   0  0  0  0  0  0  0  0  0  0  0  0
    0.3015   -0.2646    0.0000 C   0  0  0  0  0  0  0  0  0  0  0  0
    1.7904   -0.0828    0.0000 N   0  0  0  0  0  0  0  0  0  0  0  0
    2.6923   -1.2814    0.0000 C   0  0  0  0  0  0  0  0  0  0  0  0
    2.1053   -2.6617    0.0000 O   0  0  0  0  0  0  0  0  0  0  0  0
    4.1813   -1.0996    0.0000 C   0  0  0  0  0  0  0  0  0  0  0  0
    4.9094    0.2118    0.0000 C   0  0  0  0  0  0  0  0  0  0  0  0
    6.3816   -0.0754    0.0000 N   0  0  0  0  0  0  0  0  0  0  0  0
    7.4794    0.9469    0.0000 C   0  0  0  0  0  0  0  0  0  0  0  0
    8.9135    0.5073    0.0000 C   0  0  0  0  0  0  0  0  0  0  0  0
    9.2499   -0.9545    0.0000 C   0  0  0  0  0  0  0  0  0  0  0  0
   10.6841   -1.3940    0.0000 C   0  0  0  0  0  0  0  0  0  0  0  0
   11.7818   -0.3717    0.0000 C   0  0  0  0  0  0  0  0  0  0  0  0
   11.4454    1.0900    0.0000 C   0  0  0  0  0  0  0  0  0  0  0  0
   12.5431    2.1123    0.0000 O   0  0  0  0  0  0  0  0  0  0  0  0
   10.0112    1.5296    0.0000 C   0  0  0  0  0  0  0  0  0  0  0  0
    6.5634   -1.5643    0.0000 N   0  0  0  0  0  0  0  0  0  0  0  0
    5.2035   -2.1973    0.0000 N   0  0  0  0  0  0  0  0  0  0  0  0
   -5.3821    2.9675    0.0000 C   0  0  0  0  0  0  0  0  0  0  0  0
   -6.8711    2.7857    0.0000 C   0  0  0  0  0  0  0  0  0  0  0  0
  1  2  1  0
  2  3  1  0
  3  4  2  0
  4  5  1  0
  5  6  2  0
  6  7  1  0
  7  8  2  0
  8  9  1  0
  9 10  1  0
  6 11  1  0
 11 12  1  0
 12 13  1  0
 13 14  1  0
 14 15  1  0
 15 16  1  0
 16 17  1  0
 17 18  1  0
 18 19  2  0
 18 20  1  0
 20 21  2  0
 21 22  1  0
 22 23  1  0
 23 24  1  0
 24 25  2  0
 25 26  1  0
 26 27  2  0
 27 28  1  0
 28 29  1  0
 28 30  2  0
 22 31  1  0
 31 32  2  0
 12 33  1  0
 33 34  1  0
  8  3  1  0
 32 20  1  0
 34  5  1  0
 30 24  1  0
M  END
>  <ChemBL_ID>  (41) 
CHEMBL3262525

>  <Ki>  (41) 
22.5

>  <database>  (41) 
SRSLDB

$$$$

     RDKit          2D

 27 30  0  0  0  0  0  0  0  0999 V2000
   -8.8920    0.3121    0.0000 C   0  0  0  0  0  0  0  0  0  0  0  0
   -7.8948   -0.8085    0.0000 O   0  0  0  0  0  0  0  0  0  0  0  0
   -6.4258   -0.5051    0.0000 C   0  0  0  0  0  0  0  0  0  0  0  0
   -5.9540    0.9188    0.0000 C   0  0  0  0  0  0  0  0  0  0  0  0
   -4.4850    1.2221    0.0000 C   0  0  0  0  0  0  0  0  0  0  0  0
   -3.4877    0.1016    0.0000 C   0  0  0  0  0  0  0  0  0  0  0  0
   -3.9595   -1.3222    0.0000 C   0  0  0  0  0  0  0  0  0  0  0  0
   -5.4285   -1.6256    0.0000 C   0  0  0  0  0  0  0  0  0  0  0  0
   -5.9003   -3.0495    0.0000 O   0  0  0  0  0  0  0  0  0  0  0  0
   -4.9031   -4.1700    0.0000 C   0  0  0  0  0  0  0  0  0  0  0  0
   -2.0187    0.4050    0.0000 C   0  0  0  0  0  0  0  0  0  0  0  0
   -1.5470    1.8289    0.0000 N   0  0  0  0  0  0  0  0  0  0  0  0
   -0.0780    2.1322    0.0000 C   0  0  0  0  0  0  0  0  0  0  0  0
    0.9193    1.0117    0.0000 C   0  0  0  0  0  0  0  0  0  0  0  0
    2.3883    1.3151    0.0000 C   0  0  0  0  0  0  0  0  0  0  0  0
    3.3855    0.1946    0.0000 C   0  0  0  0  0  0  0  0  0  0  0  0
    4.8545    0.4979    0.0000 N   0  0  0  0  0  0  0  0  0  0  0  0
    5.4725    1.8647    0.0000 C   0  0  0  0  0  0  0  0  0  0  0  0
    6.9634    1.6993    0.0000 C   0  0  0  0  0  0  0  0  0  0  0  0
    7.2667    0.2302    0.0000 C   0  0  0  0  0  0  0  0  0  0  0  0
    8.5614   -0.5273    0.0000 C   0  0  0  0  0  0  0  0  0  0  0  0
    8.5527   -2.0272    0.0000 C   0  0  0  0  0  0  0  0  0  0  0  0
    7.2494   -2.7697    0.0000 C   0  0  0  0  0  0  0  0  0  0  0  0
    5.9547   -2.0122    0.0000 C   0  0  0  0  0  0  0  0  0  0  0  0
    5.9634   -0.5122    0.0000 C   0  0  0  0  0  0  0  0  0  0  0  0
   -2.5442    2.9494    0.0000 C   0  0  0  0  0  0  0  0  0  0  0  0
   -4.0132    2.6460    0.0000 C   0  0  0  0  0  0  0  0  0  0  0  0
  1  2  1  0
  2  3  1  0
  3  4  2  0
  4  5  1  0
  5  6  2  0
  6  7  1  0
  7  8  2  0
  8  9  1  0
  9 10  1  0
  6 11  1  0
 11 12  1  0
 12 13  1  0
 13 14  1  0
 14 15  1  0
 15 16  1  0
 16 17  1  0
 17 18  1  0
 18 19  2  0
 19 20  1  0
 20 21  2  0
 21 22  1  0
 22 23  2  0
 23 24  1  0
 24 25  2  0
 12 26  1  0
 26 27  1  0
  8  3  1  0
 25 17  1  0
 27  5  1  0
 25 20  1  0
M  END
>  <ChemBL_ID>  (42) 
CHEMBL1831157

>  <Ki>  (42) 
0.21

>  <database>  (42) 
SRSLDB

$$$$

     RDKit          2D

 32 35  0  0  0  0  0  0  0  0999 V2000
   -9.6779   -1.0634    0.0000 C   0  0  0  0  0  0  0  0  0  0  0  0
   -8.4342   -1.9020    0.0000 O   0  0  0  0  0  0  0  0  0  0  0  0
   -7.0861   -1.2442    0.0000 C   0  0  0  0  0  0  0  0  0  0  0  0
   -6.9817    0.2522    0.0000 C   0  0  0  0  0  0  0  0  0  0  0  0
   -5.6336    0.9099    0.0000 C   0  0  0  0  0  0  0  0  0  0  0  0
   -4.3899    0.0713    0.0000 C   0  0  0  0  0  0  0  0  0  0  0  0
   -4.4943   -1.4250    0.0000 C   0  0  0  0  0  0  0  0  0  0  0  0
   -5.8424   -2.0828    0.0000 C   0  0  0  0  0  0  0  0  0  0  0  0
   -5.9468   -3.5792    0.0000 O   0  0  0  0  0  0  0  0  0  0  0  0
   -4.7031   -4.4177    0.0000 C   0  0  0  0  0  0  0  0  0  0  0  0
   -3.0418    0.7291    0.0000 C   0  0  0  0  0  0  0  0  0  0  0  0
   -2.9374    2.2255    0.0000 N   0  0  0  0  0  0  0  0  0  0  0  0
   -1.5894    2.8832    0.0000 C   0  0  0  0  0  0  0  0  0  0  0  0
   -0.3457    2.0446    0.0000 C   0  0  0  0  0  0  0  0  0  0  0  0
    1.0024    2.7024    0.0000 C   0  0  0  0  0  0  0  0  0  0  0  0
    2.2461    1.8638    0.0000 N   0  0  0  0  0  0  0  0  0  0  0  0
    2.1417    0.3675    0.0000 C   0  0  0  0  0  0  0  0  0  0  0  0
    3.3854   -0.4711    0.0000 C   0  0  0  0  0  0  0  0  0  0  0  0
    4.7335    0.1866    0.0000 C   0  0  0  0  0  0  0  0  0  0  0  0
    5.9772   -0.6520    0.0000 C   0  0  0  0  0  0  0  0  0  0  0  0
    5.8728   -2.1483    0.0000 O   0  0  0  0  0  0  0  0  0  0  0  0
    7.1165   -2.9869    0.0000 C   0  0  0  0  0  0  0  0  0  0  0  0
    7.0121   -4.4833    0.0000 C   0  0  0  0  0  0  0  0  0  0  0  0
    8.2557   -5.3219    0.0000 F   0  0  0  0  0  0  0  0  0  0  0  0
    7.3253    0.0058    0.0000 C   0  0  0  0  0  0  0  0  0  0  0  0
    7.4297    1.5022    0.0000 C   0  0  0  0  0  0  0  0  0  0  0  0
    6.1860    2.3408    0.0000 C   0  0  0  0  0  0  0  0  0  0  0  0
    4.8379    1.6830    0.0000 C   0  0  0  0  0  0  0  0  0  0  0  0
    3.5942    2.5216    0.0000 C   0  0  0  0  0  0  0  0  0  0  0  0
    3.6986    4.0179    0.0000 O   0  0  0  0  0  0  0  0  0  0  0  0
   -4.1811    3.0641    0.0000 C   0  0  0  0  0  0  0  0  0  0  0  0
   -5.5292    2.4063    0.0000 C   0  0  0  0  0  0  0  0  0  0  0  0
  1  2  1  0
  2  3  1  0
  3  4  2  0
  4  5  1  0
  5  6  2  0
  6  7  1  0
  7  8  2  0
  8  9  1  0
  9 10  1  0
  6 11  1  0
 11 12  1  0
 12 13  1  0
 13 14  1  0
 14 15  1  0
 15 16  1  0
 16 17  1  0
 17 18  1  0
 18 19  1  0
 19 20  2  0
 20 21  1  0
 21 22  1  0
 22 23  1  0
 23 24  1  0
 20 25  1  0
 25 26  2  0
 26 27  1  0
 27 28  2  0
 28 29  1  0
 29 30  2  0
 12 31  1  0
 31 32  1  0
  8  3  1  0
 29 16  1  0
 32  5  1  0
 28 19  1  0
M  END
>  <ChemBL_ID>  (43) 
CHEMBL2437386

>  <Ki>  (43) 
9.24

>  <database>  (43) 
SRSLDB

$$$$

     RDKit          2D

 40 44  0  0  0  0  0  0  0  0999 V2000
  -13.2151   -1.0374    0.0000 C   0  0  0  0  0  0  0  0  0  0  0  0
  -12.0432   -1.9738    0.0000 O   0  0  0  0  0  0  0  0  0  0  0  0
  -10.6464   -1.4271    0.0000 C   0  0  0  0  0  0  0  0  0  0  0  0
  -10.4214    0.0559    0.0000 C   0  0  0  0  0  0  0  0  0  0  0  0
   -9.0246    0.6026    0.0000 C   0  0  0  0  0  0  0  0  0  0  0  0
   -7.8527   -0.3337    0.0000 C   0  0  0  0  0  0  0  0  0  0  0  0
   -8.0777   -1.8168    0.0000 C   0  0  0  0  0  0  0  0  0  0  0  0
   -9.4745   -2.3634    0.0000 C   0  0  0  0  0  0  0  0  0  0  0  0
   -9.6995   -3.8465    0.0000 O   0  0  0  0  0  0  0  0  0  0  0  0
   -8.5277   -4.7828    0.0000 C   0  0  0  0  0  0  0  0  0  0  0  0
   -6.4559    0.2130    0.0000 C   0  0  0  0  0  0  0  0  0  0  0  0
   -6.2309    1.6960    0.0000 N   0  0  0  0  0  0  0  0  0  0  0  0
   -4.8341    2.2427    0.0000 C   0  0  0  0  0  0  0  0  0  0  0  0
   -3.6623    1.3063    0.0000 C   0  0  0  0  0  0  0  0  0  0  0  0
   -2.2654    1.8530    0.0000 C   0  0  0  0  0  0  0  0  0  0  0  0
   -1.0936    0.9167    0.0000 C   0  0  0  0  0  0  0  0  0  0  0  0
    0.3033    1.4634    0.0000 N   0  0  0  0  0  0  0  0  0  0  0  0
    1.4751    0.5270    0.0000 C   0  0  0  0  0  0  0  0  0  0  0  0
    1.2502   -0.9560    0.0000 O   0  0  0  0  0  0  0  0  0  0  0  0
    2.8720    1.0737    0.0000 C   0  0  0  0  0  0  0  0  0  0  0  0
    4.0438    0.1374    0.0000 C   0  0  0  0  0  0  0  0  0  0  0  0
    5.4406    0.6840    0.0000 C   0  0  0  0  0  0  0  0  0  0  0  0
    6.6125   -0.2523    0.0000 N   0  0  0  0  0  0  0  0  0  0  0  0
    8.0588    0.1454    0.0000 C   0  0  0  0  0  0  0  0  0  0  0  0
    8.8840   -1.1073    0.0000 C   0  0  0  0  0  0  0  0  0  0  0  0
   10.3824   -1.1760    0.0000 C   0  0  0  0  0  0  0  0  0  0  0  0
   11.3188   -0.0041    0.0000 C   0  0  0  0  0  0  0  0  0  0  0  0
   12.7226   -0.5325    0.0000 N   0  0  0  0  0  0  0  0  0  0  0  0
   12.6539   -2.0309    0.0000 C   0  0  0  0  0  0  0  0  0  0  0  0
   11.2076   -2.4286    0.0000 N   0  0  0  0  0  0  0  0  0  0  0  0
   10.6792   -3.8325    0.0000 C   0  0  0  0  0  0  0  0  0  0  0  0
    7.9476   -2.2791    0.0000 N   0  0  0  0  0  0  0  0  0  0  0  0
    6.5438   -1.7507    0.0000 N   0  0  0  0  0  0  0  0  0  0  0  0
    5.6656    2.1671    0.0000 C   0  0  0  0  0  0  0  0  0  0  0  0
    4.4938    3.1034    0.0000 C   0  0  0  0  0  0  0  0  0  0  0  0
    3.0969    2.5567    0.0000 C   0  0  0  0  0  0  0  0  0  0  0  0
    1.9251    3.4931    0.0000 O   0  0  0  0  0  0  0  0  0  0  0  0
    2.1500    4.9761    0.0000 C   0  0  0  0  0  0  0  0  0  0  0  0
   -7.4028    2.6323    0.0000 C   0  0  0  0  0  0  0  0  0  0  0  0
   -8.7996    2.0857    0.0000 C   0  0  0  0  0  0  0  0  0  0  0  0
  1  2  1  0
  2  3  1  0
  3  4  2  0
  4  5  1  0
  5  6  2  0
  6  7  1  0
  7  8  2  0
  8  9  1  0
  9 10  1  0
  6 11  1  0
 11 12  1  0
 12 13  1  0
 13 14  1  0
 14 15  1  0
 15 16  1  0
 16 17  1  0
 17 18  1  0
 18 19  2  0
 18 20  1  0
 20 21  2  0
 21 22  1  0
 22 23  1  0
 23 24  1  0
 24 25  2  0
 25 26  1  0
 26 27  2  0
 27 28  1  0
 28 29  2  0
 29 30  1  0
 30 31  1  0
 25 32  1  0
 32 33  2  0
 22 34  2  0
 34 35  1  0
 35 36  2  0
 36 37  1  0
 37 38  1  0
 12 39  1  0
 39 40  1  0
  8  3  1  0
 36 20  1  0
 40  5  1  0
 33 23  1  0
 30 26  1  0
M  END
>  <ChemBL_ID>  (44) 
CHEMBL3262791

>  <Ki>  (44) 
20.7

>  <database>  (44) 
SRSLDB

$$$$

     RDKit          2D

 33 35  0  0  0  0  0  0  0  0999 V2000
   -3.7432   -5.4053    0.0000 C   0  0  0  0  0  0  0  0  0  0  0  0
   -4.7046   -4.2539    0.0000 C   0  0  0  0  0  0  0  0  0  0  0  0
   -5.6660   -3.1025    0.0000 C   0  0  0  0  0  0  0  0  0  0  0  0
   -5.1496   -1.6942    0.0000 O   0  0  0  0  0  0  0  0  0  0  0  0
   -6.1110   -0.5428    0.0000 C   0  0  0  0  0  0  0  0  0  0  0  0
   -7.5888   -0.7997    0.0000 C   0  0  0  0  0  0  0  0  0  0  0  0
   -8.5502    0.3517    0.0000 C   0  0  0  0  0  0  0  0  0  0  0  0
   -8.0337    1.7600    0.0000 C   0  0  0  0  0  0  0  0  0  0  0  0
   -8.9951    2.9114    0.0000 C   0  0  0  0  0  0  0  0  0  0  0  0
   -9.9565    4.0628    0.0000 N   0  0  0  0  0  0  0  0  0  0  0  0
   -6.5559    2.0169    0.0000 C   0  0  0  0  0  0  0  0  0  0  0  0
   -5.5945    0.8655    0.0000 C   0  0  0  0  0  0  0  0  0  0  0  0
   -4.1167    1.1223    0.0000 C   0  0  0  0  0  0  0  0  0  0  0  0
   -3.6002    2.5306    0.0000 O   0  0  0  0  0  0  0  0  0  0  0  0
   -3.1553   -0.0291    0.0000 N   0  0  0  0  0  0  0  0  0  0  0  0
   -1.6774    0.2278    0.0000 C   0  0  0  0  0  0  0  0  0  0  0  0
   -0.7160   -0.9236    0.0000 C   0  0  0  0  0  0  0  0  0  0  0  0
    0.7618   -0.6667    0.0000 C   0  0  0  0  0  0  0  0  0  0  0  0
    1.7232   -1.8181    0.0000 C   0  0  0  0  0  0  0  0  0  0  0  0
    3.2010   -1.5612    0.0000 N   0  0  0  0  0  0  0  0  0  0  0  0
    4.1624   -2.7126    0.0000 C   0  0  0  0  0  0  0  0  0  0  0  0
    5.6403   -2.4557    0.0000 C   0  0  0  0  0  0  0  0  0  0  0  0
    6.1567   -1.0474    0.0000 C   0  0  0  0  0  0  0  0  0  0  0  0
    7.6345   -0.7905    0.0000 C   0  0  0  0  0  0  0  0  0  0  0  0
    8.1510    0.6178    0.0000 C   0  0  0  0  0  0  0  0  0  0  0  0
    9.6288    0.8746    0.0000 O   0  0  0  0  0  0  0  0  0  0  0  0
   10.5902   -0.2768    0.0000 C   0  0  0  0  0  0  0  0  0  0  0  0
    7.1896    1.7692    0.0000 C   0  0  0  0  0  0  0  0  0  0  0  0
    7.7060    3.1775    0.0000 O   0  0  0  0  0  0  0  0  0  0  0  0
    6.7447    4.3289    0.0000 C   0  0  0  0  0  0  0  0  0  0  0  0
    5.7118    1.5123    0.0000 C   0  0  0  0  0  0  0  0  0  0  0  0
    5.1953    0.1040    0.0000 C   0  0  0  0  0  0  0  0  0  0  0  0
    3.7175   -0.1529    0.0000 C   0  0  0  0  0  0  0  0  0  0  0  0
  1  2  3  0
  2  3  1  0
  3  4  1  0
  4  5  1  0
  5  6  2  0
  6  7  1  0
  7  8  2  0
  8  9  1  0
  9 10  3  0
  8 11  1  0
 11 12  2  0
 12 13  1  0
 13 14  2  0
 13 15  1  0
 15 16  1  0
 16 17  1  0
 17 18  1  0
 18 19  1  0
 19 20  1  0
 20 21  1  0
 21 22  1  0
 22 23  1  0
 23 24  2  0
 24 25  1  0
 25 26  1  0
 26 27  1  0
 25 28  2  0
 28 29  1  0
 29 30  1  0
 28 31  1  0
 31 32  2  0
 32 33  1  0
 12  5  1  0
 33 20  1  0
 32 23  1  0
M  END
>  <ChemBL_ID>  (45) 
CHEMBL3262788

>  <Ki>  (45) 
12.2

>  <database>  (45) 
SRSLDB

$$$$

     RDKit          2D

 33 37  0  0  0  0  0  0  0  0999 V2000
   -8.0606   -2.8236    0.0000 C   0  0  0  0  0  0  0  0  0  0  0  0
   -6.5967   -3.1509    0.0000 O   0  0  0  0  0  0  0  0  0  0  0  0
   -5.5813   -2.0468    0.0000 C   0  0  0  0  0  0  0  0  0  0  0  0
   -6.0298   -0.6154    0.0000 C   0  0  0  0  0  0  0  0  0  0  0  0
   -5.0144    0.4887    0.0000 C   0  0  0  0  0  0  0  0  0  0  0  0
   -3.5506    0.1614    0.0000 C   0  0  0  0  0  0  0  0  0  0  0  0
   -3.1021   -1.2700    0.0000 C   0  0  0  0  0  0  0  0  0  0  0  0
   -4.1175   -2.3741    0.0000 C   0  0  0  0  0  0  0  0  0  0  0  0
   -3.6690   -3.8055    0.0000 O   0  0  0  0  0  0  0  0  0  0  0  0
   -2.2051   -4.1328    0.0000 C   0  0  0  0  0  0  0  0  0  0  0  0
   -2.5352    1.2654    0.0000 C   0  0  0  0  0  0  0  0  0  0  0  0
   -2.9837    2.6968    0.0000 N   0  0  0  0  0  0  0  0  0  0  0  0
   -1.9683    3.8009    0.0000 C   0  0  0  0  0  0  0  0  0  0  0  0
   -0.5044    3.4736    0.0000 C   0  0  0  0  0  0  0  0  0  0  0  0
   -0.0559    2.0422    0.0000 C   0  0  0  0  0  0  0  0  0  0  0  0
    1.4079    1.7149    0.0000 C   0  0  0  0  0  0  0  0  0  0  0  0
    2.4233    2.8190    0.0000 N   0  0  0  0  0  0  0  0  0  0  0  0
    3.8871    2.4917    0.0000 C   0  0  0  0  0  0  0  0  0  0  0  0
    4.9025    3.5958    0.0000 O   0  0  0  0  0  0  0  0  0  0  0  0
    4.3356    1.0603    0.0000 C   0  0  0  0  0  0  0  0  0  0  0  0
    3.4412   -0.1439    0.0000 C   0  0  0  0  0  0  0  0  0  0  0  0
    4.3101   -1.3666    0.0000 C   0  0  0  0  0  0  0  0  0  0  0  0
    3.9827   -2.8305    0.0000 C   0  0  0  0  0  0  0  0  0  0  0  0
    5.0868   -3.8459    0.0000 C   0  0  0  0  0  0  0  0  0  0  0  0
    4.7595   -5.3097    0.0000 Br  0  0  0  0  0  0  0  0  0  0  0  0
    6.5182   -3.3974    0.0000 C   0  0  0  0  0  0  0  0  0  0  0  0
    6.8455   -1.9335    0.0000 C   0  0  0  0  0  0  0  0  0  0  0  0
    5.7414   -0.9181    0.0000 C   0  0  0  0  0  0  0  0  0  0  0  0
    5.7572    0.5818    0.0000 O   0  0  0  0  0  0  0  0  0  0  0  0
    1.9748    4.2504    0.0000 C   0  0  0  0  0  0  0  0  0  0  0  0
    0.5110    4.5777    0.0000 C   0  0  0  0  0  0  0  0  0  0  0  0
   -4.4475    3.0241    0.0000 C   0  0  0  0  0  0  0  0  0  0  0  0
   -5.4629    1.9201    0.0000 C   0  0  0  0  0  0  0  0  0  0  0  0
  1  2  1  0
  2  3  1  0
  3  4  2  0
  4  5  1  0
  5  6  2  0
  6  7  1  0
  7  8  2  0
  8  9  1  0
  9 10  1  0
  6 11  1  0
 11 12  1  0
 12 13  1  0
 13 14  1  0
 14 15  1  0
 15 16  1  0
 16 17  1  0
 17 18  1  0
 18 19  2  0
 18 20  1  0
 20 21  2  0
 21 22  1  0
 22 23  2  0
 23 24  1  0
 24 25  1  0
 24 26  2  0
 26 27  1  0
 27 28  2  0
 28 29  1  0
 17 30  1  0
 30 31  1  0
 12 32  1  0
 32 33  1  0
  8  3  1  0
 31 14  1  0
 33  5  1  0
 29 20  1  0
 28 22  1  0
M  END
>  <Ki>  (46) 
8.69999999999999

>  <database>  (46) 
SRSLDB

$$$$

     RDKit          2D

 26 29  0  0  0  0  0  0  0  0999 V2000
    9.0911   -1.1123    0.0000 O   0  0  0  0  0  0  0  0  0  0  0  0
    7.6368   -0.7448    0.0000 C   0  0  0  0  0  0  0  0  0  0  0  0
    6.5914   -1.8205    0.0000 C   0  0  0  0  0  0  0  0  0  0  0  0
    5.1371   -1.4529    0.0000 C   0  0  0  0  0  0  0  0  0  0  0  0
    4.7283   -0.0097    0.0000 C   0  0  0  0  0  0  0  0  0  0  0  0
    5.7737    1.0660    0.0000 C   0  0  0  0  0  0  0  0  0  0  0  0
    7.2280    0.6984    0.0000 C   0  0  0  0  0  0  0  0  0  0  0  0
    5.3649    2.5092    0.0000 C   0  0  0  0  0  0  0  0  0  0  0  0
    3.9106    2.8767    0.0000 C   0  0  0  0  0  0  0  0  0  0  0  0
    2.8652    1.8010    0.0000 C   0  0  0  0  0  0  0  0  0  0  0  0
    3.2740    0.3578    0.0000 C   0  0  0  0  0  0  0  0  0  0  0  0
    2.2286   -0.7178    0.0000 C   0  0  0  0  0  0  0  0  0  0  0  0
    0.7743   -0.3503    0.0000 C   0  0  0  0  0  0  0  0  0  0  0  0
   -0.2711   -1.4260    0.0000 C   0  0  0  0  0  0  0  0  0  0  0  0
   -1.7254   -1.0584    0.0000 N   0  0  0  0  0  0  0  0  0  0  0  0
   -2.1342    0.3848    0.0000 C   0  0  0  0  0  0  0  0  0  0  0  0
   -3.5885    0.7523    0.0000 C   0  0  0  0  0  0  0  0  0  0  0  0
   -4.6339   -0.3233    0.0000 N   0  0  0  0  0  0  0  0  0  0  0  0
   -6.0882    0.0442    0.0000 C   0  0  0  0  0  0  0  0  0  0  0  0
   -6.4971    1.4874    0.0000 C   0  0  0  0  0  0  0  0  0  0  0  0
   -7.9513    1.8549    0.0000 C   0  0  0  0  0  0  0  0  0  0  0  0
   -8.9968    0.7793    0.0000 C   0  0  0  0  0  0  0  0  0  0  0  0
   -8.5879   -0.6639    0.0000 C   0  0  0  0  0  0  0  0  0  0  0  0
   -7.1337   -1.0315    0.0000 C   0  0  0  0  0  0  0  0  0  0  0  0
   -4.2251   -1.7666    0.0000 C   0  0  0  0  0  0  0  0  0  0  0  0
   -2.7708   -2.1341    0.0000 C   0  0  0  0  0  0  0  0  0  0  0  0
  1  2  1  0
  2  3  2  0
  3  4  1  0
  4  5  2  0
  5  6  1  0
  6  7  2  0
  6  8  1  0
  8  9  1  0
  9 10  1  0
 10 11  1  0
 11 12  1  0
 12 13  1  0
 13 14  1  0
 14 15  1  0
 15 16  1  0
 16 17  1  0
 17 18  1  0
 18 19  1  0
 19 20  1  0
 20 21  1  0
 21 22  1  0
 22 23  1  0
 23 24  1  0
 18 25  1  0
 25 26  1  0
  7  2  1  0
 26 15  1  0
 11  5  1  0
 24 19  1  0
M  END
>  <ChemBL_ID>  (47) 
CHEMBL73964

>  <Compound_Key>  (47) 
42

>  <Ki>  (47) 
1.12

>  <database>  (47) 
CHEMBL

>  <Assay_ChEMBL_ID>  (47) 
CHEMBL807586

>  <Document_ChEMBL_ID>  (47) 
CHEMBL1148440

$$$$

     RDKit          2D

 26 28  0  0  0  0  0  0  0  0999 V2000
   -3.2174    2.0203    0.0000 O   0  0  0  0  0  0  0  0  0  0  0  0
   -3.8520    0.6612    0.0000 C   0  0  0  0  0  0  0  0  0  0  0  0
   -2.9922   -0.5680    0.0000 C   0  0  0  0  0  0  0  0  0  0  0  0
   -1.4978   -0.4379    0.0000 C   0  0  0  0  0  0  0  0  0  0  0  0
   -0.6381   -1.6671    0.0000 C   0  0  0  0  0  0  0  0  0  0  0  0
    0.8563   -1.5370    0.0000 N   0  0  0  0  0  0  0  0  0  0  0  0
    1.7161   -2.7662    0.0000 C   0  0  0  0  0  0  0  0  0  0  0  0
    3.2104   -2.6361    0.0000 C   0  0  0  0  0  0  0  0  0  0  0  0
    3.8450   -1.2770    0.0000 C   0  0  0  0  0  0  0  0  0  0  0  0
    5.0733   -2.1379    0.0000 O   0  0  0  0  0  0  0  0  0  0  0  0
    4.9062   -0.2168    0.0000 C   0  0  0  0  0  0  0  0  0  0  0  0
    6.3549   -0.6057    0.0000 C   0  0  0  0  0  0  0  0  0  0  0  0
    7.4160    0.4544    0.0000 C   0  0  0  0  0  0  0  0  0  0  0  0
    7.0285    1.9035    0.0000 C   0  0  0  0  0  0  0  0  0  0  0  0
    8.0897    2.9636    0.0000 Cl  0  0  0  0  0  0  0  0  0  0  0  0
    5.5798    2.2924    0.0000 C   0  0  0  0  0  0  0  0  0  0  0  0
    4.5186    1.2322    0.0000 C   0  0  0  0  0  0  0  0  0  0  0  0
    2.9852   -0.0479    0.0000 C   0  0  0  0  0  0  0  0  0  0  0  0
    1.4909   -0.1779    0.0000 C   0  0  0  0  0  0  0  0  0  0  0  0
   -5.3463    0.5312    0.0000 C   0  0  0  0  0  0  0  0  0  0  0  0
   -6.2061    1.7603    0.0000 C   0  0  0  0  0  0  0  0  0  0  0  0
   -7.7005    1.6303    0.0000 C   0  0  0  0  0  0  0  0  0  0  0  0
   -8.3350    0.2711    0.0000 C   0  0  0  0  0  0  0  0  0  0  0  0
   -9.8294    0.1411    0.0000 F   0  0  0  0  0  0  0  0  0  0  0  0
   -7.4753   -0.9580    0.0000 C   0  0  0  0  0  0  0  0  0  0  0  0
   -5.9809   -0.8280    0.0000 C   0  0  0  0  0  0  0  0  0  0  0  0
  1  2  1  0
  2  3  1  0
  3  4  1  0
  4  5  1  0
  5  6  1  0
  6  7  1  0
  7  8  1  0
  8  9  1  0
  9 10  1  0
  9 11  1  0
 11 12  2  0
 12 13  1  0
 13 14  2  0
 14 15  1  0
 14 16  1  0
 16 17  2  0
  9 18  1  0
 18 19  1  0
  2 20  1  0
 20 21  2  0
 21 22  1  0
 22 23  2  0
 23 24  1  0
 23 25  1  0
 25 26  2  0
 19  6  1  0
 26 20  1  0
 17 11  1  0
M  END
>  <ChemBL_ID>  (48) 
CHEMBL1036

>  <Compound_Key>  (48) 
haloperidol metabolite II

>  <Ki>  (48) 
2.0

>  <database>  (48) 
SRSLDB

$$$$

     RDKit          2D

 31 34  0  0  0  0  0  0  0  0999 V2000
  -10.7486    0.4385    0.0000 C   0  0  0  0  0  0  0  0  0  0  0  0
   -9.7738   -0.7016    0.0000 O   0  0  0  0  0  0  0  0  0  0  0  0
   -8.2991   -0.4275    0.0000 C   0  0  0  0  0  0  0  0  0  0  0  0
   -7.7991    0.9867    0.0000 C   0  0  0  0  0  0  0  0  0  0  0  0
   -6.3243    1.2607    0.0000 C   0  0  0  0  0  0  0  0  0  0  0  0
   -5.3496    0.1206    0.0000 C   0  0  0  0  0  0  0  0  0  0  0  0
   -5.8496   -1.2936    0.0000 C   0  0  0  0  0  0  0  0  0  0  0  0
   -7.3244   -1.5677    0.0000 C   0  0  0  0  0  0  0  0  0  0  0  0
   -7.8244   -2.9819    0.0000 O   0  0  0  0  0  0  0  0  0  0  0  0
   -6.8497   -4.1220    0.0000 C   0  0  0  0  0  0  0  0  0  0  0  0
   -3.8748    0.3947    0.0000 C   0  0  0  0  0  0  0  0  0  0  0  0
   -3.3748    1.8089    0.0000 N   0  0  0  0  0  0  0  0  0  0  0  0
   -1.9001    2.0829    0.0000 C   0  0  0  0  0  0  0  0  0  0  0  0
   -0.9253    0.9428    0.0000 C   0  0  0  0  0  0  0  0  0  0  0  0
    0.5494    1.2169    0.0000 C   0  0  0  0  0  0  0  0  0  0  0  0
    1.5241    0.0767    0.0000 C   0  0  0  0  0  0  0  0  0  0  0  0
    2.9989    0.3508    0.0000 N   0  0  0  0  0  0  0  0  0  0  0  0
    3.9736   -0.7893    0.0000 C   0  0  0  0  0  0  0  0  0  0  0  0
    3.4736   -2.2035    0.0000 O   0  0  0  0  0  0  0  0  0  0  0  0
    5.4484   -0.5153    0.0000 C   0  0  0  0  0  0  0  0  0  0  0  0
    6.5369   -1.5473    0.0000 C   0  0  0  0  0  0  0  0  0  0  0  0
    7.8548   -0.8309    0.0000 C   0  0  0  0  0  0  0  0  0  0  0  0
    9.2690   -1.3309    0.0000 C   0  0  0  0  0  0  0  0  0  0  0  0
   10.4091   -0.3562    0.0000 C   0  0  0  0  0  0  0  0  0  0  0  0
   11.8233   -0.8562    0.0000 Br  0  0  0  0  0  0  0  0  0  0  0  0
   10.1351    1.1186    0.0000 C   0  0  0  0  0  0  0  0  0  0  0  0
    8.7209    1.6186    0.0000 C   0  0  0  0  0  0  0  0  0  0  0  0
    7.5807    0.6439    0.0000 C   0  0  0  0  0  0  0  0  0  0  0  0
    6.0935    0.8389    0.0000 O   0  0  0  0  0  0  0  0  0  0  0  0
   -4.3495    2.9490    0.0000 C   0  0  0  0  0  0  0  0  0  0  0  0
   -5.8243    2.6749    0.0000 C   0  0  0  0  0  0  0  0  0  0  0  0
  1  2  1  0
  2  3  1  0
  3  4  2  0
  4  5  1  0
  5  6  2  0
  6  7  1  0
  7  8  2  0
  8  9  1  0
  9 10  1  0
  6 11  1  0
 11 12  1  0
 12 13  1  0
 13 14  1  0
 14 15  1  0
 15 16  1  0
 16 17  1  0
 17 18  1  0
 18 19  2  0
 18 20  1  0
 20 21  2  0
 21 22  1  0
 22 23  2  0
 23 24  1  0
 24 25  1  0
 24 26  2  0
 26 27  1  0
 27 28  2  0
 28 29  1  0
 12 30  1  0
 30 31  1  0
  8  3  1  0
 29 20  1  0
 31  5  1  0
 28 22  1  0
M  END
>  <Ki>  (49) 
15.0

>  <database>  (49) 
SRSLDB

$$$$

     RDKit          2D

 32 35  0  0  0  0  0  0  0  0999 V2000
  -11.2467    2.9154    0.0000 C   0  0  0  0  0  0  0  0  0  0  0  0
  -11.0139    1.4335    0.0000 O   0  0  0  0  0  0  0  0  0  0  0  0
   -9.6143    0.8942    0.0000 C   0  0  0  0  0  0  0  0  0  0  0  0
   -8.4473    1.8367    0.0000 C   0  0  0  0  0  0  0  0  0  0  0  0
   -7.0477    1.2974    0.0000 C   0  0  0  0  0  0  0  0  0  0  0  0
   -6.8149   -0.1845    0.0000 C   0  0  0  0  0  0  0  0  0  0  0  0
   -5.4152   -0.7238    0.0000 N   0  0  0  0  0  0  0  0  0  0  0  0
   -4.1562    0.0916    0.0000 C   0  0  0  0  0  0  0  0  0  0  0  0
   -2.9916   -0.8539    0.0000 C   0  0  0  0  0  0  0  0  0  0  0  0
   -1.5423   -0.4675    0.0000 C   0  0  0  0  0  0  0  0  0  0  0  0
   -1.1522    0.9809    0.0000 O   0  0  0  0  0  0  0  0  0  0  0  0
   -0.4829   -1.5295    0.0000 N   0  0  0  0  0  0  0  0  0  0  0  0
    0.9664   -1.1431    0.0000 C   0  0  0  0  0  0  0  0  0  0  0  0
    2.0257   -2.2051    0.0000 C   0  0  0  0  0  0  0  0  0  0  0  0
    3.4751   -1.8187    0.0000 N   0  0  0  0  0  0  0  0  0  0  0  0
    4.5344   -2.8808    0.0000 C   0  0  0  0  0  0  0  0  0  0  0  0
    5.9838   -2.4944    0.0000 C   0  0  0  0  0  0  0  0  0  0  0  0
    6.3739   -1.0460    0.0000 C   0  0  0  0  0  0  0  0  0  0  0  0
    7.8233   -0.6596    0.0000 C   0  0  0  0  0  0  0  0  0  0  0  0
    8.2133    0.7888    0.0000 C   0  0  0  0  0  0  0  0  0  0  0  0
    9.6627    1.1752    0.0000 O   0  0  0  0  0  0  0  0  0  0  0  0
   10.7220    0.1132    0.0000 C   0  0  0  0  0  0  0  0  0  0  0  0
    7.1540    1.8508    0.0000 C   0  0  0  0  0  0  0  0  0  0  0  0
    7.5441    3.2992    0.0000 O   0  0  0  0  0  0  0  0  0  0  0  0
    6.4848    4.3612    0.0000 C   0  0  0  0  0  0  0  0  0  0  0  0
    5.7047    1.4644    0.0000 C   0  0  0  0  0  0  0  0  0  0  0  0
    5.3146    0.0160    0.0000 C   0  0  0  0  0  0  0  0  0  0  0  0
    3.8652   -0.3704    0.0000 C   0  0  0  0  0  0  0  0  0  0  0  0
   -3.5310   -2.2536    0.0000 N   0  0  0  0  0  0  0  0  0  0  0  0
   -5.0288   -2.1732    0.0000 N   0  0  0  0  0  0  0  0  0  0  0  0
   -7.9818   -1.1270    0.0000 C   0  0  0  0  0  0  0  0  0  0  0  0
   -9.3815   -0.5876    0.0000 C   0  0  0  0  0  0  0  0  0  0  0  0
  1  2  1  0
  2  3  1  0
  3  4  2  0
  4  5  1  0
  5  6  2  0
  6  7  1  0
  7  8  1  0
  8  9  2  0
  9 10  1  0
 10 11  2  0
 10 12  1  0
 12 13  1  0
 13 14  1  0
 14 15  1  0
 15 16  1  0
 16 17  1  0
 17 18  1  0
 18 19  2  0
 19 20  1  0
 20 21  1  0
 21 22  1  0
 20 23  2  0
 23 24  1  0
 24 25  1  0
 23 26  1  0
 26 27  2  0
 27 28  1  0
  9 29  1  0
 29 30  2  0
  6 31  1  0
 31 32  2  0
 32  3  1  0
 30  7  1  0
 28 15  1  0
 27 18  1  0
M  END
>  <ChemBL_ID>  (50) 
CHEMBL3259847

>  <Ki>  (50) 
410.0

>  <database>  (50) 
SRSLDB

$$$$

     RDKit          2D

 40 43  0  0  0  0  0  0  0  0999 V2000
  -12.6690   -1.2101    0.0000 C   0  0  0  0  0  0  0  0  0  0  0  0
  -11.5090   -2.1611    0.0000 O   0  0  0  0  0  0  0  0  0  0  0  0
  -10.1054   -1.6320    0.0000 C   0  0  0  0  0  0  0  0  0  0  0  0
   -9.8618   -0.1520    0.0000 C   0  0  0  0  0  0  0  0  0  0  0  0
   -8.4582    0.3771    0.0000 C   0  0  0  0  0  0  0  0  0  0  0  0
   -7.2982   -0.5739    0.0000 C   0  0  0  0  0  0  0  0  0  0  0  0
   -7.5418   -2.0540    0.0000 C   0  0  0  0  0  0  0  0  0  0  0  0
   -8.9454   -2.5831    0.0000 C   0  0  0  0  0  0  0  0  0  0  0  0
   -9.1890   -4.0631    0.0000 O   0  0  0  0  0  0  0  0  0  0  0  0
   -8.0290   -5.0142    0.0000 C   0  0  0  0  0  0  0  0  0  0  0  0
   -5.8946   -0.0449    0.0000 C   0  0  0  0  0  0  0  0  0  0  0  0
   -5.6510    1.4352    0.0000 N   0  0  0  0  0  0  0  0  0  0  0  0
   -4.2474    1.9643    0.0000 C   0  0  0  0  0  0  0  0  0  0  0  0
   -3.0874    1.0133    0.0000 C   0  0  0  0  0  0  0  0  0  0  0  0
   -1.6838    1.5423    0.0000 C   0  0  0  0  0  0  0  0  0  0  0  0
   -0.5238    0.5913    0.0000 C   0  0  0  0  0  0  0  0  0  0  0  0
    0.8798    1.1204    0.0000 N   0  0  0  0  0  0  0  0  0  0  0  0
    2.0398    0.1693    0.0000 C   0  0  0  0  0  0  0  0  0  0  0  0
    1.7962   -1.3107    0.0000 O   0  0  0  0  0  0  0  0  0  0  0  0
    3.4434    0.6984    0.0000 C   0  0  0  0  0  0  0  0  0  0  0  0
    4.6034   -0.2526    0.0000 C   0  0  0  0  0  0  0  0  0  0  0  0
    6.0070    0.2764    0.0000 C   0  0  0  0  0  0  0  0  0  0  0  0
    7.1669   -0.6746    0.0000 N   0  0  0  0  0  0  0  0  0  0  0  0
    8.6182   -0.2951    0.0000 C   0  0  0  0  0  0  0  0  0  0  0  0
    9.4275   -1.5581    0.0000 C   0  0  0  0  0  0  0  0  0  0  0  0
   10.9249   -1.6456    0.0000 C   0  0  0  0  0  0  0  0  0  0  0  0
   11.5978   -2.9862    0.0000 N   0  0  0  0  0  0  0  0  0  0  0  0
   13.0952   -3.0738    0.0000 C   0  0  0  0  0  0  0  0  0  0  0  0
   10.7732   -4.2393    0.0000 C   0  0  0  0  0  0  0  0  0  0  0  0
    8.4765   -2.7180    0.0000 N   0  0  0  0  0  0  0  0  0  0  0  0
    7.0794   -2.1720    0.0000 N   0  0  0  0  0  0  0  0  0  0  0  0
    6.2506    1.7565    0.0000 C   0  0  0  0  0  0  0  0  0  0  0  0
    5.0906    2.7076    0.0000 C   0  0  0  0  0  0  0  0  0  0  0  0
    3.6870    2.1785    0.0000 C   0  0  0  0  0  0  0  0  0  0  0  0
    2.5270    3.1295    0.0000 O   0  0  0  0  0  0  0  0  0  0  0  0
    2.7706    4.6096    0.0000 C   0  0  0  0  0  0  0  0  0  0  0  0
    1.6107    5.5606    0.0000 C   0  0  0  0  0  0  0  0  0  0  0  0
    1.8543    7.0407    0.0000 F   0  0  0  0  0  0  0  0  0  0  0  0
   -6.8109    2.3862    0.0000 C   0  0  0  0  0  0  0  0  0  0  0  0
   -8.2145    1.8572    0.0000 C   0  0  0  0  0  0  0  0  0  0  0  0
  1  2  1  0
  2  3  1  0
  3  4  2  0
  4  5  1  0
  5  6  2  0
  6  7  1  0
  7  8  2  0
  8  9  1  0
  9 10  1  0
  6 11  1  0
 11 12  1  0
 12 13  1  0
 13 14  1  0
 14 15  1  0
 15 16  1  0
 16 17  1  0
 17 18  1  0
 18 19  2  0
 18 20  1  0
 20 21  2  0
 21 22  1  0
 22 23  1  0
 23 24  1  0
 24 25  2  0
 25 26  1  0
 26 27  1  0
 27 28  1  0
 27 29  1  0
 25 30  1  0
 30 31  2  0
 22 32  2  0
 32 33  1  0
 33 34  2  0
 34 35  1  0
 35 36  1  0
 36 37  1  0
 37 38  1  0
 12 39  1  0
 39 40  1  0
  8  3  1  0
 34 20  1  0
 40  5  1  0
 31 23  1  0
M  END
>  <ChemBL_ID>  (51) 
CHEMBL3262793

>  <Ki>  (51) 
94.0

>  <database>  (51) 
SRSLDB

$$$$

     RDKit          2D

 30 32  0  0  0  0  0  0  0  0999 V2000
   -9.0176    1.1710    0.0000 C   0  0  0  0  0  0  0  0  0  0  0  0
   -8.2492   -0.1173    0.0000 O   0  0  0  0  0  0  0  0  0  0  0  0
   -6.7493   -0.0960    0.0000 C   0  0  0  0  0  0  0  0  0  0  0  0
   -6.0179    1.2136    0.0000 C   0  0  0  0  0  0  0  0  0  0  0  0
   -4.5180    1.2349    0.0000 C   0  0  0  0  0  0  0  0  0  0  0  0
   -3.7496   -0.0533    0.0000 C   0  0  0  0  0  0  0  0  0  0  0  0
   -4.4811   -1.3629    0.0000 C   0  0  0  0  0  0  0  0  0  0  0  0
   -5.9809   -1.3842    0.0000 C   0  0  0  0  0  0  0  0  0  0  0  0
   -6.7124   -2.6938    0.0000 O   0  0  0  0  0  0  0  0  0  0  0  0
   -5.9440   -3.9820    0.0000 C   0  0  0  0  0  0  0  0  0  0  0  0
   -2.2498   -0.0320    0.0000 C   0  0  0  0  0  0  0  0  0  0  0  0
   -1.5183    1.2776    0.0000 N   0  0  0  0  0  0  0  0  0  0  0  0
   -0.0185    1.2989    0.0000 C   0  0  0  0  0  0  0  0  0  0  0  0
    0.7499    0.0107    0.0000 C   0  0  0  0  0  0  0  0  0  0  0  0
    2.2498    0.0320    0.0000 N   0  0  0  0  0  0  0  0  0  0  0  0
    3.0182   -1.2563    0.0000 C   0  0  0  0  0  0  0  0  0  0  0  0
    2.2867   -2.5658    0.0000 O   0  0  0  0  0  0  0  0  0  0  0  0
    4.5180   -1.2349    0.0000 C   0  0  0  0  0  0  0  0  0  0  0  0
    5.2864   -2.5232    0.0000 C   0  0  0  0  0  0  0  0  0  0  0  0
    6.7863   -2.5019    0.0000 C   0  0  0  0  0  0  0  0  0  0  0  0
    7.5546   -3.7901    0.0000 C   0  0  0  0  0  0  0  0  0  0  0  0
    7.5177   -1.1923    0.0000 C   0  0  0  0  0  0  0  0  0  0  0  0
    6.7493    0.0960    0.0000 C   0  0  0  0  0  0  0  0  0  0  0  0
    5.2495    0.0746    0.0000 C   0  0  0  0  0  0  0  0  0  0  0  0
    4.4811    1.3629    0.0000 O   0  0  0  0  0  0  0  0  0  0  0  0
    5.2125    2.6724    0.0000 C   0  0  0  0  0  0  0  0  0  0  0  0
    4.4441    3.9607    0.0000 C   0  0  0  0  0  0  0  0  0  0  0  0
    5.1756    5.2703    0.0000 F   0  0  0  0  0  0  0  0  0  0  0  0
   -2.2867    2.5658    0.0000 C   0  0  0  0  0  0  0  0  0  0  0  0
   -3.7866    2.5445    0.0000 C   0  0  0  0  0  0  0  0  0  0  0  0
  1  2  1  0
  2  3  1  0
  3  4  2  0
  4  5  1  0
  5  6  2  0
  6  7  1  0
  7  8  2  0
  8  9  1  0
  9 10  1  0
  6 11  1  0
 11 12  1  0
 12 13  1  0
 13 14  1  0
 14 15  1  0
 15 16  1  0
 16 17  2  0
 16 18  1  0
 18 19  2  0
 19 20  1  0
 20 21  1  0
 20 22  2  0
 22 23  1  0
 23 24  2  0
 24 25  1  0
 25 26  1  0
 26 27  1  0
 27 28  1  0
 12 29  1  0
 29 30  1  0
  8  3  1  0
 24 18  1  0
 30  5  1  0
M  END
>  <ChemBL_ID>  (52) 
CHEMBL389261

>  <Ki>  (52) 
102.0

>  <database>  (52) 
SRSLDB

$$$$

     RDKit          2D

 30 33  0  0  0  0  0  0  0  0999 V2000
   -9.7451    0.9693    0.0000 C   0  0  0  0  0  0  0  0  0  0  0  0
   -8.8962   -0.2674    0.0000 O   0  0  0  0  0  0  0  0  0  0  0  0
   -7.4007   -0.1506    0.0000 C   0  0  0  0  0  0  0  0  0  0  0  0
   -6.7542    1.2030    0.0000 C   0  0  0  0  0  0  0  0  0  0  0  0
   -5.2587    1.3198    0.0000 C   0  0  0  0  0  0  0  0  0  0  0  0
   -4.4098    0.0831    0.0000 C   0  0  0  0  0  0  0  0  0  0  0  0
   -5.0564   -1.2704    0.0000 C   0  0  0  0  0  0  0  0  0  0  0  0
   -6.5518   -1.3872    0.0000 C   0  0  0  0  0  0  0  0  0  0  0  0
   -7.1984   -2.7407    0.0000 O   0  0  0  0  0  0  0  0  0  0  0  0
   -6.3495   -3.9774    0.0000 C   0  0  0  0  0  0  0  0  0  0  0  0
   -2.9144    0.1999    0.0000 C   0  0  0  0  0  0  0  0  0  0  0  0
   -2.2678    1.5534    0.0000 N   0  0  0  0  0  0  0  0  0  0  0  0
   -0.7724    1.6703    0.0000 C   0  0  0  0  0  0  0  0  0  0  0  0
    0.0765    0.4336    0.0000 C   0  0  0  0  0  0  0  0  0  0  0  0
    1.5719    0.5504    0.0000 C   0  0  0  0  0  0  0  0  0  0  0  0
    2.4208   -0.6863    0.0000 C   0  0  0  0  0  0  0  0  0  0  0  0
    3.9163   -0.5694    0.0000 N   0  0  0  0  0  0  0  0  0  0  0  0
    4.8898   -1.7106    0.0000 C   0  0  0  0  0  0  0  0  0  0  0  0
    4.5388   -3.1690    0.0000 O   0  0  0  0  0  0  0  0  0  0  0  0
    6.2760   -1.1374    0.0000 C   0  0  0  0  0  0  0  0  0  0  0  0
    7.6295   -1.7839    0.0000 C   0  0  0  0  0  0  0  0  0  0  0  0
    8.8661   -0.9350    0.0000 C   0  0  0  0  0  0  0  0  0  0  0  0
    8.7493    0.5604    0.0000 C   0  0  0  0  0  0  0  0  0  0  0  0
    9.9860    1.4093    0.0000 F   0  0  0  0  0  0  0  0  0  0  0  0
    7.3958    1.2070    0.0000 C   0  0  0  0  0  0  0  0  0  0  0  0
    6.1591    0.3581    0.0000 C   0  0  0  0  0  0  0  0  0  0  0  0
    4.7008    0.7091    0.0000 C   0  0  0  0  0  0  0  0  0  0  0  0
    4.1275    2.0952    0.0000 O   0  0  0  0  0  0  0  0  0  0  0  0
   -3.1167    2.7901    0.0000 C   0  0  0  0  0  0  0  0  0  0  0  0
   -4.6122    2.6733    0.0000 C   0  0  0  0  0  0  0  0  0  0  0  0
  1  2  1  0
  2  3  1  0
  3  4  2  0
  4  5  1  0
  5  6  2  0
  6  7  1  0
  7  8  2  0
  8  9  1  0
  9 10  1  0
  6 11  1  0
 11 12  1  0
 12 13  1  0
 13 14  1  0
 14 15  1  0
 15 16  1  0
 16 17  1  0
 17 18  1  0
 18 19  2  0
 18 20  1  0
 20 21  2  0
 21 22  1  0
 22 23  2  0
 23 24  1  0
 23 25  1  0
 25 26  2  0
 26 27  1  0
 27 28  2  0
 12 29  1  0
 29 30  1  0
  8  3  1  0
 27 17  1  0
 30  5  1  0
 26 20  1  0
M  END
>  <Ki>  (53) 
8.0

>  <database>  (53) 
SRSLDB

$$$$

     RDKit          2D

 24 27  0  0  0  0  0  0  0  0999 V2000
    5.7954    2.2986    0.0000 C   0  0  0  0  0  0  0  0  0  0  0  0
    4.3160    2.5458    0.0000 C   0  0  0  0  0  0  0  0  0  0  0  0
    3.3621    1.3882    0.0000 N   0  0  0  0  0  0  0  0  0  0  0  0
    1.8649    1.4795    0.0000 C   0  0  0  0  0  0  0  0  0  0  0  0
    1.0587    2.7444    0.0000 O   0  0  0  0  0  0  0  0  0  0  0  0
    1.3154    0.0837    0.0000 N   0  0  0  0  0  0  0  0  0  0  0  0
   -0.1367   -0.2921    0.0000 C   0  0  0  0  0  0  0  0  0  0  0  0
   -0.5373   -1.7377    0.0000 O   0  0  0  0  0  0  0  0  0  0  0  0
   -1.1883    0.7775    0.0000 N   0  0  0  0  0  0  0  0  0  0  0  0
   -2.6405    0.4017    0.0000 C   0  0  0  0  0  0  0  0  0  0  0  0
   -3.6921    1.4713    0.0000 C   0  0  0  0  0  0  0  0  0  0  0  0
   -5.1442    1.0955    0.0000 C   0  0  0  0  0  0  0  0  0  0  0  0
   -6.4091    0.2892    0.0000 C   0  0  0  0  0  0  0  0  0  0  0  0
   -6.0333   -1.1629    0.0000 C   0  0  0  0  0  0  0  0  0  0  0  0
   -4.5360   -1.2542    0.0000 C   0  0  0  0  0  0  0  0  0  0  0  0
   -3.0410   -1.0439    0.0000 C   0  0  0  0  0  0  0  0  0  0  0  0
   -3.9866    0.1416    0.0000 N   0  0  0  0  0  0  0  0  0  0  0  0
   -3.1894    0.1487    0.0000 C   0  0  0  0  0  0  0  0  0  0  0  0
    2.4730   -0.8701    0.0000 C   0  0  0  0  0  0  0  0  0  0  0  0
    2.5388   -2.3687    0.0000 C   0  0  0  0  0  0  0  0  0  0  0  0
    3.8694   -3.0611    0.0000 C   0  0  0  0  0  0  0  0  0  0  0  0
    5.1343   -2.2548    0.0000 C   0  0  0  0  0  0  0  0  0  0  0  0
    5.0686   -0.7563    0.0000 C   0  0  0  0  0  0  0  0  0  0  0  0
    3.7380   -0.0639    0.0000 C   0  0  0  0  0  0  0  0  0  0  0  0
  1  2  1  0
  2  3  1  0
  3  4  1  0
  4  5  2  0
  4  6  1  0
  6  7  1  0
  7  8  2  0
  7  9  1  0
  9 10  1  0
 10 11  1  0
 11 12  1  0
 12 13  1  0
 13 14  1  0
 14 15  1  0
 15 16  1  0
 15 17  1  0
 17 18  1  0
  6 19  1  0
 19 20  2  0
 20 21  1  0
 21 22  2  0
 22 23  1  0
 23 24  2  0
 24  3  1  0
 16 10  1  0
 24 19  1  0
 17 12  1  0
M  END
>  <ChemBL_ID>  (54) 
CHEMBL62023

>  <Ki>  (54) 
32.0

>  <database>  (54) 
SRSLDB

$$$$

     RDKit          2D

 27 29  0  0  0  0  0  0  0  0999 V2000
   -5.7071   -2.9029    0.0000 C   0  0  0  0  0  0  0  0  0  0  0  0
   -4.3304   -2.3074    0.0000 O   0  0  0  0  0  0  0  0  0  0  0  0
   -4.1578   -0.8173    0.0000 C   0  0  0  0  0  0  0  0  0  0  0  0
   -5.3619    0.0772    0.0000 C   0  0  0  0  0  0  0  0  0  0  0  0
   -5.1894    1.5672    0.0000 C   0  0  0  0  0  0  0  0  0  0  0  0
   -3.8127    2.1628    0.0000 C   0  0  0  0  0  0  0  0  0  0  0  0
   -3.6401    3.6528    0.0000 C   0  0  0  0  0  0  0  0  0  0  0  0
   -2.6085    1.2683    0.0000 C   0  0  0  0  0  0  0  0  0  0  0  0
   -2.7811   -0.2218    0.0000 C   0  0  0  0  0  0  0  0  0  0  0  0
   -1.5770   -1.1162    0.0000 N   0  0  0  0  0  0  0  0  0  0  0  0
   -0.2003   -0.5207    0.0000 C   0  0  0  0  0  0  0  0  0  0  0  0
   -0.0277    0.9694    0.0000 O   0  0  0  0  0  0  0  0  0  0  0  0
    1.0038   -1.4151    0.0000 O   0  0  0  0  0  0  0  0  0  0  0  0
    2.3805   -0.8196    0.0000 C   0  0  0  0  0  0  0  0  0  0  0  0
    3.5847   -1.7140    0.0000 C   0  0  0  0  0  0  0  0  0  0  0  0
    4.9614   -1.1185    0.0000 C   0  0  0  0  0  0  0  0  0  0  0  0
    6.3381   -0.5229    0.0000 C   0  0  0  0  0  0  0  0  0  0  0  0
    6.5106    0.9671    0.0000 C   0  0  0  0  0  0  0  0  0  0  0  0
    5.3065    1.8616    0.0000 C   0  0  0  0  0  0  0  0  0  0  0  0
    3.9298    1.2660    0.0000 C   0  0  0  0  0  0  0  0  0  0  0  0
    2.5531    0.6705    0.0000 C   0  0  0  0  0  0  0  0  0  0  0  0
    3.7572   -0.2240    0.0000 N   0  0  0  0  0  0  0  0  0  0  0  0
    2.3805   -0.8196    0.0000 C   0  0  0  0  0  0  0  0  0  0  0  0
    1.1764    0.0749    0.0000 C   0  0  0  0  0  0  0  0  0  0  0  0
   -0.2003   -0.5207    0.0000 C   0  0  0  0  0  0  0  0  0  0  0  0
   -1.4044    0.3738    0.0000 C   0  0  0  0  0  0  0  0  0  0  0  0
   -2.8843    0.1291    0.0000 N   0  0  0  0  0  0  0  0  0  0  0  0
  1  2  1  0
  2  3  1  0
  3  4  2  0
  4  5  1  0
  5  6  2  0
  6  7  1  0
  6  8  1  0
  8  9  2  0
  9 10  1  0
 10 11  1  0
 11 12  2  0
 11 13  1  0
 13 14  1  0
 14 15  1  0
 15 16  1  0
 16 17  1  0
 17 18  1  0
 18 19  1  0
 19 20  1  0
 20 21  1  0
 20 22  1  0
 22 23  1  0
 23 24  1  0
 24 25  1  0
 25 26  1  0
 26 27  1  0
  9  3  1  0
 21 14  1  0
 22 16  1  0
M  END
>  <Ki>  (55) 
12.94

>  <database>  (55) 
SRSLDB

$$$$

     RDKit          2D

 42 45  0  0  0  0  0  0  0  0999 V2000
  -14.0930   -2.1176    0.0000 C   0  0  0  0  0  0  0  0  0  0  0  0
  -12.8236   -2.9167    0.0000 O   0  0  0  0  0  0  0  0  0  0  0  0
  -11.4968   -2.2169    0.0000 C   0  0  0  0  0  0  0  0  0  0  0  0
  -11.4395   -0.7180    0.0000 C   0  0  0  0  0  0  0  0  0  0  0  0
  -10.1128   -0.0182    0.0000 C   0  0  0  0  0  0  0  0  0  0  0  0
   -8.8433   -0.8173    0.0000 C   0  0  0  0  0  0  0  0  0  0  0  0
   -8.9006   -2.3162    0.0000 C   0  0  0  0  0  0  0  0  0  0  0  0
  -10.2274   -3.0160    0.0000 C   0  0  0  0  0  0  0  0  0  0  0  0
  -10.2847   -4.5149    0.0000 O   0  0  0  0  0  0  0  0  0  0  0  0
   -9.0153   -5.3140    0.0000 C   0  0  0  0  0  0  0  0  0  0  0  0
   -7.5166   -0.1174    0.0000 C   0  0  0  0  0  0  0  0  0  0  0  0
   -7.4593    1.3815    0.0000 N   0  0  0  0  0  0  0  0  0  0  0  0
   -6.1325    2.0813    0.0000 C   0  0  0  0  0  0  0  0  0  0  0  0
   -4.8631    1.2822    0.0000 C   0  0  0  0  0  0  0  0  0  0  0  0
   -3.5363    1.9820    0.0000 C   0  0  0  0  0  0  0  0  0  0  0  0
   -2.2669    1.1829    0.0000 C   0  0  0  0  0  0  0  0  0  0  0  0
   -0.9401    1.8827    0.0000 N   0  0  0  0  0  0  0  0  0  0  0  0
    0.3293    1.0836    0.0000 C   0  0  0  0  0  0  0  0  0  0  0  0
    0.2720   -0.4153    0.0000 O   0  0  0  0  0  0  0  0  0  0  0  0
    1.6560    1.7834    0.0000 C   0  0  0  0  0  0  0  0  0  0  0  0
    2.9255    0.9843    0.0000 C   0  0  0  0  0  0  0  0  0  0  0  0
    4.2522    1.6842    0.0000 C   0  0  0  0  0  0  0  0  0  0  0  0
    5.5216    0.8851    0.0000 N   0  0  0  0  0  0  0  0  0  0  0  0
    6.9143    1.4424    0.0000 C   0  0  0  0  0  0  0  0  0  0  0  0
    7.8746    0.2901    0.0000 C   0  0  0  0  0  0  0  0  0  0  0  0
    9.3713    0.3898    0.0000 C   0  0  0  0  0  0  0  0  0  0  0  0
   10.2060   -0.8565    0.0000 O   0  0  0  0  0  0  0  0  0  0  0  0
   11.7027   -0.7569    0.0000 C   0  0  0  0  0  0  0  0  0  0  0  0
   12.5373   -2.0032    0.0000 C   0  0  0  0  0  0  0  0  0  0  0  0
   14.0340   -1.9035    0.0000 O   0  0  0  0  0  0  0  0  0  0  0  0
   14.8687   -3.1499    0.0000 C   0  0  0  0  0  0  0  0  0  0  0  0
   16.3654   -3.0502    0.0000 C   0  0  0  0  0  0  0  0  0  0  0  0
   17.2000   -4.2965    0.0000 F   0  0  0  0  0  0  0  0  0  0  0  0
    7.0755   -0.9793    0.0000 N   0  0  0  0  0  0  0  0  0  0  0  0
    5.6213   -0.6116    0.0000 N   0  0  0  0  0  0  0  0  0  0  0  0
    4.3095    3.1831    0.0000 C   0  0  0  0  0  0  0  0  0  0  0  0
    3.0401    3.9822    0.0000 C   0  0  0  0  0  0  0  0  0  0  0  0
    1.7133    3.2823    0.0000 C   0  0  0  0  0  0  0  0  0  0  0  0
    0.4439    4.0814    0.0000 O   0  0  0  0  0  0  0  0  0  0  0  0
    0.5012    5.5803    0.0000 C   0  0  0  0  0  0  0  0  0  0  0  0
   -8.7287    2.1805    0.0000 C   0  0  0  0  0  0  0  0  0  0  0  0
  -10.0554    1.4807    0.0000 C   0  0  0  0  0  0  0  0  0  0  0  0
  1  2  1  0
  2  3  1  0
  3  4  2  0
  4  5  1  0
  5  6  2  0
  6  7  1  0
  7  8  2  0
  8  9  1  0
  9 10  1  0
  6 11  1  0
 11 12  1  0
 12 13  1  0
 13 14  1  0
 14 15  1  0
 15 16  1  0
 16 17  1  0
 17 18  1  0
 18 19  2  0
 18 20  1  0
 20 21  2  0
 21 22  1  0
 22 23  1  0
 23 24  1  0
 24 25  2  0
 25 26  1  0
 26 27  1  0
 27 28  1  0
 28 29  1  0
 29 30  1  0
 30 31  1  0
 31 32  1  0
 32 33  1  0
 25 34  1  0
 34 35  2  0
 22 36  2  0
 36 37  1  0
 37 38  2  0
 38 39  1  0
 39 40  1  0
 12 41  1  0
 41 42  1  0
  8  3  1  0
 38 20  1  0
 42  5  1  0
 35 23  1  0
M  END
>  <ChemBL_ID>  (56) 
CHEMBL3262792

>  <Ki>  (56) 
66.0

>  <database>  (56) 
SRSLDB

$$$$

     RDKit          2D

 41 45  0  0  0  0  0  0  0  0999 V2000
  -13.8002    3.9792    0.0000 C   0  0  0  0  0  0  0  0  0  0  0  0
  -13.4968    2.5102    0.0000 O   0  0  0  0  0  0  0  0  0  0  0  0
  -12.0730    2.0384    0.0000 C   0  0  0  0  0  0  0  0  0  0  0  0
  -10.9524    3.0357    0.0000 C   0  0  0  0  0  0  0  0  0  0  0  0
   -9.5286    2.5639    0.0000 C   0  0  0  0  0  0  0  0  0  0  0  0
   -9.2252    1.0949    0.0000 C   0  0  0  0  0  0  0  0  0  0  0  0
  -10.3457    0.0976    0.0000 C   0  0  0  0  0  0  0  0  0  0  0  0
  -10.0423   -1.3714    0.0000 C   0  0  0  0  0  0  0  0  0  0  0  0
   -8.6185   -1.8431    0.0000 N   0  0  0  0  0  0  0  0  0  0  0  0
   -7.3998   -0.9685    0.0000 C   0  0  0  0  0  0  0  0  0  0  0  0
   -6.1914   -1.8572    0.0000 C   0  0  0  0  0  0  0  0  0  0  0  0
   -4.7622   -1.4019    0.0000 C   0  0  0  0  0  0  0  0  0  0  0  0
   -3.6533   -2.4121    0.0000 C   0  0  0  0  0  0  0  0  0  0  0  0
   -2.2241   -1.9568    0.0000 C   0  0  0  0  0  0  0  0  0  0  0  0
   -1.9037   -0.4914    0.0000 C   0  0  0  0  0  0  0  0  0  0  0  0
   -0.4745   -0.0361    0.0000 C   0  0  0  0  0  0  0  0  0  0  0  0
   -0.1541    1.4292    0.0000 O   0  0  0  0  0  0  0  0  0  0  0  0
    0.6344   -1.0463    0.0000 N   0  0  0  0  0  0  0  0  0  0  0  0
    2.0637   -0.5910    0.0000 C   0  0  0  0  0  0  0  0  0  0  0  0
    3.1726   -1.6011    0.0000 C   0  0  0  0  0  0  0  0  0  0  0  0
    4.6018   -1.1459    0.0000 C   0  0  0  0  0  0  0  0  0  0  0  0
    5.7107   -2.1560    0.0000 C   0  0  0  0  0  0  0  0  0  0  0  0
    7.1399   -1.7008    0.0000 N   0  0  0  0  0  0  0  0  0  0  0  0
    8.2488   -2.7109    0.0000 C   0  0  0  0  0  0  0  0  0  0  0  0
    9.6781   -2.2556    0.0000 C   0  0  0  0  0  0  0  0  0  0  0  0
    9.9984   -0.7902    0.0000 C   0  0  0  0  0  0  0  0  0  0  0  0
   11.4277   -0.3350    0.0000 C   0  0  0  0  0  0  0  0  0  0  0  0
   11.7480    1.1304    0.0000 C   0  0  0  0  0  0  0  0  0  0  0  0
   13.1773    1.5857    0.0000 O   0  0  0  0  0  0  0  0  0  0  0  0
   14.2861    0.5755    0.0000 C   0  0  0  0  0  0  0  0  0  0  0  0
   10.6391    2.1405    0.0000 C   0  0  0  0  0  0  0  0  0  0  0  0
   10.9595    3.6059    0.0000 O   0  0  0  0  0  0  0  0  0  0  0  0
    9.8506    4.6161    0.0000 C   0  0  0  0  0  0  0  0  0  0  0  0
    9.2099    1.6853    0.0000 C   0  0  0  0  0  0  0  0  0  0  0  0
    8.8895    0.2199    0.0000 C   0  0  0  0  0  0  0  0  0  0  0  0
    7.4603   -0.2354    0.0000 C   0  0  0  0  0  0  0  0  0  0  0  0
   -3.0126    0.5187    0.0000 C   0  0  0  0  0  0  0  0  0  0  0  0
   -4.4418    0.0635    0.0000 C   0  0  0  0  0  0  0  0  0  0  0  0
   -6.6632   -3.2811    0.0000 N   0  0  0  0  0  0  0  0  0  0  0  0
   -8.1632   -3.2724    0.0000 N   0  0  0  0  0  0  0  0  0  0  0  0
  -11.7696    0.5694    0.0000 C   0  0  0  0  0  0  0  0  0  0  0  0
  1  2  1  0
  2  3  1  0
  3  4  2  0
  4  5  1  0
  5  6  2  0
  6  7  1  0
  7  8  1  0
  8  9  1  0
  9 10  1  0
 10 11  2  0
 11 12  1  0
 12 13  2  0
 13 14  1  0
 14 15  2  0
 15 16  1  0
 16 17  2  0
 16 18  1  0
 18 19  1  0
 19 20  1  0
 20 21  1  0
 21 22  1  0
 22 23  1  0
 23 24  1  0
 24 25  1  0
 25 26  1  0
 26 27  2  0
 27 28  1  0
 28 29  1  0
 29 30  1  0
 28 31  2  0
 31 32  1  0
 32 33  1  0
 31 34  1  0
 34 35  2  0
 35 36  1  0
 15 37  1  0
 37 38  2  0
 11 39  1  0
 39 40  2  0
  7 41  2  0
 41  3  1  0
 40  9  1  0
 38 12  1  0
 36 23  1  0
 35 26  1  0
M  END
>  <ChemBL_ID>  (57) 
CHEMBL3262785

>  <Ki>  (57) 
66.2

>  <database>  (57) 
SRSLDB

$$$$

     RDKit          2D

 32 37  0  0  0  0  0  0  0  0999 V2000
    3.8145    3.1397    0.0000 C   0  0  0  0  0  0  0  0  0  0  0  0
    3.1943    1.7740    0.0000 O   0  0  0  0  0  0  0  0  0  0  0  0
    4.0670    0.5539    0.0000 C   0  0  0  0  0  0  0  0  0  0  0  0
    3.4468   -0.8118    0.0000 C   0  0  0  0  0  0  0  0  0  0  0  0
    1.9539   -0.9576    0.0000 C   0  0  0  0  0  0  0  0  0  0  0  0
    1.3337   -2.3234    0.0000 O   0  0  0  0  0  0  0  0  0  0  0  0
    1.0812    0.2624    0.0000 N   0  0  0  0  0  0  0  0  0  0  0  0
   -0.4117    0.1166    0.0000 C   0  0  0  0  0  0  0  0  0  0  0  0
   -1.2844    1.3366    0.0000 C   0  0  0  0  0  0  0  0  0  0  0  0
   -2.7773    1.1909    0.0000 C   0  0  0  0  0  0  0  0  0  0  0  0
   -3.3975   -0.1749    0.0000 N   0  0  0  0  0  0  0  0  0  0  0  0
   -4.8904   -0.3207    0.0000 C   0  0  0  0  0  0  0  0  0  0  0  0
   -5.7631    0.8993    0.0000 C   0  0  0  0  0  0  0  0  0  0  0  0
   -6.3833   -0.4664    0.0000 C   0  0  0  0  0  0  0  0  0  0  0  0
   -7.8762   -0.6122    0.0000 C   0  0  0  0  0  0  0  0  0  0  0  0
   -8.7489    0.6078    0.0000 C   0  0  0  0  0  0  0  0  0  0  0  0
   -8.1287    1.9736    0.0000 C   0  0  0  0  0  0  0  0  0  0  0  0
   -6.6358    2.1193    0.0000 C   0  0  0  0  0  0  0  0  0  0  0  0
   -5.6564   -0.1935    0.0000 C   0  0  0  0  0  0  0  0  0  0  0  0
   -5.5106   -1.6864    0.0000 C   0  0  0  0  0  0  0  0  0  0  0  0
   -7.0035   -1.8322    0.0000 C   0  0  0  0  0  0  0  0  0  0  0  0
   -2.5248   -1.3949    0.0000 C   0  0  0  0  0  0  0  0  0  0  0  0
   -1.0319   -1.2491    0.0000 C   0  0  0  0  0  0  0  0  0  0  0  0
    4.3195   -2.0318    0.0000 C   0  0  0  0  0  0  0  0  0  0  0  0
    5.8124   -1.8861    0.0000 C   0  0  0  0  0  0  0  0  0  0  0  0
    6.6850   -3.1061    0.0000 Br  0  0  0  0  0  0  0  0  0  0  0  0
    6.4326   -0.5203    0.0000 C   0  0  0  0  0  0  0  0  0  0  0  0
    7.9255   -0.3745    0.0000 C   0  0  0  0  0  0  0  0  0  0  0  0
    8.5457    0.9912    0.0000 C   0  0  0  0  0  0  0  0  0  0  0  0
    7.6730    2.2113    0.0000 C   0  0  0  0  0  0  0  0  0  0  0  0
    6.1801    2.0655    0.0000 C   0  0  0  0  0  0  0  0  0  0  0  0
    5.5599    0.6997    0.0000 C   0  0  0  0  0  0  0  0  0  0  0  0
  1  2  1  0
  2  3  1  0
  3  4  2  0
  4  5  1  0
  5  6  2  0
  5  7  1  0
  7  8  1  0
  8  9  1  0
  9 10  1  0
 10 11  1  0
 11 12  1  0
 12 13  1  0
 13 14  1  0
 14 15  1  0
 15 16  1  0
 16 17  1  0
 17 18  1  0
 17 19  1  0
 19 20  1  0
 20 21  1  0
 11 22  1  0
 22 23  1  0
  4 24  1  0
 24 25  2  0
 25 26  1  0
 25 27  1  0
 27 28  2  0
 28 29  1  0
 29 30  2  0
 30 31  1  0
 31 32  2  0
 32  3  1  0
 23  8  1  0
 32 27  1  0
 20 12  1  0
 18 13  1  0
 21 15  1  0
M  END
>  <ChemBL_ID>  (58) 
CHEMBL50352

>  <Ki>  (58) 
55.0

>  <database>  (58) 
SRSLDB

$$$$

     RDKit          2D

 41 45  0  0  0  0  0  0  0  0999 V2000
  -14.3023    0.6654    0.0000 C   0  0  0  0  0  0  0  0  0  0  0  0
  -12.8941    0.1487    0.0000 O   0  0  0  0  0  0  0  0  0  0  0  0
  -11.7426    1.1099    0.0000 C   0  0  0  0  0  0  0  0  0  0  0  0
  -11.9992    2.5878    0.0000 C   0  0  0  0  0  0  0  0  0  0  0  0
  -10.8476    3.5490    0.0000 C   0  0  0  0  0  0  0  0  0  0  0  0
   -9.4394    3.0323    0.0000 C   0  0  0  0  0  0  0  0  0  0  0  0
   -9.1828    1.5544    0.0000 C   0  0  0  0  0  0  0  0  0  0  0  0
  -10.3344    0.5932    0.0000 C   0  0  0  0  0  0  0  0  0  0  0  0
  -10.0777   -0.8846    0.0000 C   0  0  0  0  0  0  0  0  0  0  0  0
   -8.6695   -1.4013    0.0000 N   0  0  0  0  0  0  0  0  0  0  0  0
   -7.4238   -0.5658    0.0000 C   0  0  0  0  0  0  0  0  0  0  0  0
   -6.2442   -1.4923    0.0000 C   0  0  0  0  0  0  0  0  0  0  0  0
   -4.8012   -1.0826    0.0000 C   0  0  0  0  0  0  0  0  0  0  0  0
   -3.7249   -2.1274    0.0000 C   0  0  0  0  0  0  0  0  0  0  0  0
   -2.2819   -1.7177    0.0000 C   0  0  0  0  0  0  0  0  0  0  0  0
   -1.9153   -0.2632    0.0000 C   0  0  0  0  0  0  0  0  0  0  0  0
   -0.4723    0.1465    0.0000 C   0  0  0  0  0  0  0  0  0  0  0  0
   -0.1057    1.6010    0.0000 O   0  0  0  0  0  0  0  0  0  0  0  0
    0.6040   -0.8982    0.0000 N   0  0  0  0  0  0  0  0  0  0  0  0
    2.0469   -0.4885    0.0000 C   0  0  0  0  0  0  0  0  0  0  0  0
    3.1232   -1.5333    0.0000 C   0  0  0  0  0  0  0  0  0  0  0  0
    4.5662   -1.1236    0.0000 C   0  0  0  0  0  0  0  0  0  0  0  0
    5.6425   -2.1684    0.0000 C   0  0  0  0  0  0  0  0  0  0  0  0
    7.0855   -1.7587    0.0000 N   0  0  0  0  0  0  0  0  0  0  0  0
    8.1618   -2.8034    0.0000 C   0  0  0  0  0  0  0  0  0  0  0  0
    9.6047   -2.3937    0.0000 C   0  0  0  0  0  0  0  0  0  0  0  0
    9.9714   -0.9392    0.0000 C   0  0  0  0  0  0  0  0  0  0  0  0
   11.4143   -0.5295    0.0000 C   0  0  0  0  0  0  0  0  0  0  0  0
   11.7810    0.9250    0.0000 C   0  0  0  0  0  0  0  0  0  0  0  0
   13.2240    1.3347    0.0000 O   0  0  0  0  0  0  0  0  0  0  0  0
   14.3003    0.2899    0.0000 C   0  0  0  0  0  0  0  0  0  0  0  0
   10.7047    1.9698    0.0000 C   0  0  0  0  0  0  0  0  0  0  0  0
   11.0714    3.4243    0.0000 O   0  0  0  0  0  0  0  0  0  0  0  0
    9.9950    4.4691    0.0000 C   0  0  0  0  0  0  0  0  0  0  0  0
    9.2617    1.5601    0.0000 C   0  0  0  0  0  0  0  0  0  0  0  0
    8.8951    0.1056    0.0000 C   0  0  0  0  0  0  0  0  0  0  0  0
    7.4521   -0.3042    0.0000 C   0  0  0  0  0  0  0  0  0  0  0  0
   -2.9916    0.7816    0.0000 C   0  0  0  0  0  0  0  0  0  0  0  0
   -4.4346    0.3719    0.0000 C   0  0  0  0  0  0  0  0  0  0  0  0
   -6.7609   -2.9005    0.0000 N   0  0  0  0  0  0  0  0  0  0  0  0
   -8.2598   -2.8443    0.0000 N   0  0  0  0  0  0  0  0  0  0  0  0
  1  2  1  0
  2  3  1  0
  3  4  2  0
  4  5  1  0
  5  6  2  0
  6  7  1  0
  7  8  2  0
  8  9  1  0
  9 10  1  0
 10 11  1  0
 11 12  2  0
 12 13  1  0
 13 14  2  0
 14 15  1  0
 15 16  2  0
 16 17  1  0
 17 18  2  0
 17 19  1  0
 19 20  1  0
 20 21  1  0
 21 22  1  0
 22 23  1  0
 23 24  1  0
 24 25  1  0
 25 26  1  0
 26 27  1  0
 27 28  2  0
 28 29  1  0
 29 30  1  0
 30 31  1  0
 29 32  2  0
 32 33  1  0
 33 34  1  0
 32 35  1  0
 35 36  2  0
 36 37  1  0
 16 38  1  0
 38 39  2  0
 12 40  1  0
 40 41  2  0
  8  3  1  0
 41 10  1  0
 39 13  1  0
 37 24  1  0
 36 27  1  0
M  END
>  <ChemBL_ID>  (59) 
CHEMBL3262784

>  <Ki>  (59) 
55.0

>  <database>  (59) 
SRSLDB

$$$$

     RDKit          2D

 26 29  0  0  0  0  0  0  0  0999 V2000
  -10.0640    1.4048    0.0000 F   0  0  0  0  0  0  0  0  0  0  0  0
   -8.6268    0.9754    0.0000 C   0  0  0  0  0  0  0  0  0  0  0  0
   -7.5363    2.0053    0.0000 C   0  0  0  0  0  0  0  0  0  0  0  0
   -6.0991    1.5759    0.0000 C   0  0  0  0  0  0  0  0  0  0  0  0
   -5.7524    0.1165    0.0000 C   0  0  0  0  0  0  0  0  0  0  0  0
   -4.3152   -0.3130    0.0000 N   0  0  0  0  0  0  0  0  0  0  0  0
   -3.9685   -1.7724    0.0000 C   0  0  0  0  0  0  0  0  0  0  0  0
   -2.5313   -2.2018    0.0000 C   0  0  0  0  0  0  0  0  0  0  0  0
   -1.4408   -1.1719    0.0000 N   0  0  0  0  0  0  0  0  0  0  0  0
   -0.0036   -1.6013    0.0000 C   0  0  0  0  0  0  0  0  0  0  0  0
    1.0870   -0.5714    0.0000 C   0  0  0  0  0  0  0  0  0  0  0  0
    2.5242   -1.0009    0.0000 C   0  0  0  0  0  0  0  0  0  0  0  0
    3.6147    0.0291    0.0000 C   0  0  0  0  0  0  0  0  0  0  0  0
    5.0519   -0.4004    0.0000 N   0  0  0  0  0  0  0  0  0  0  0  0
    5.5492   -1.8155    0.0000 C   0  0  0  0  0  0  0  0  0  0  0  0
    7.0488   -1.7799    0.0000 C   0  0  0  0  0  0  0  0  0  0  0  0
    7.4783   -0.3427    0.0000 C   0  0  0  0  0  0  0  0  0  0  0  0
    8.8337    0.2999    0.0000 C   0  0  0  0  0  0  0  0  0  0  0  0
    8.9549    1.7950    0.0000 C   0  0  0  0  0  0  0  0  0  0  0  0
    7.7208    2.6475    0.0000 C   0  0  0  0  0  0  0  0  0  0  0  0
    6.3654    2.0050    0.0000 C   0  0  0  0  0  0  0  0  0  0  0  0
    6.2441    0.5099    0.0000 C   0  0  0  0  0  0  0  0  0  0  0  0
   -1.7874    0.2875    0.0000 C   0  0  0  0  0  0  0  0  0  0  0  0
   -3.2247    0.7169    0.0000 C   0  0  0  0  0  0  0  0  0  0  0  0
   -6.8429   -0.9135    0.0000 C   0  0  0  0  0  0  0  0  0  0  0  0
   -8.2801   -0.4840    0.0000 C   0  0  0  0  0  0  0  0  0  0  0  0
  1  2  1  0
  2  3  2  0
  3  4  1  0
  4  5  2  0
  5  6  1  0
  6  7  1  0
  7  8  1  0
  8  9  1  0
  9 10  1  0
 10 11  1  0
 11 12  1  0
 12 13  1  0
 13 14  1  0
 14 15  1  0
 15 16  2  0
 16 17  1  0
 17 18  2  0
 18 19  1  0
 19 20  2  0
 20 21  1  0
 21 22  2  0
  9 23  1  0
 23 24  1  0
  5 25  1  0
 25 26  2  0
 26  2  1  0
 24  6  1  0
 22 14  1  0
 22 17  1  0
M  END
>  <ChemBL_ID>  (60) 
CHEMBL1831156

>  <Ki>  (60) 
1.09

>  <database>  (60) 
SRSLDB

$$$$

     RDKit          2D

 48 52  0  0  0  0  0  0  0  0999 V2000
    1.1232   -3.5150    0.0000 C   0  0  0  0  0  0  0  0  0  0  0  0
    2.4317   -2.7816    0.0000 O   0  0  0  0  0  0  0  0  0  0  0  0
    2.4507   -1.2817    0.0000 C   0  0  0  0  0  0  0  0  0  0  0  0
    1.1613   -0.5153    0.0000 C   0  0  0  0  0  0  0  0  0  0  0  0
    1.1804    0.9846    0.0000 C   0  0  0  0  0  0  0  0  0  0  0  0
    2.4888    1.7181    0.0000 C   0  0  0  0  0  0  0  0  0  0  0  0
    2.5079    3.2179    0.0000 C   0  0  0  0  0  0  0  0  0  0  0  0
    3.7782    0.9516    0.0000 C   0  0  0  0  0  0  0  0  0  0  0  0
    3.7592   -0.5483    0.0000 C   0  0  0  0  0  0  0  0  0  0  0  0
    5.0486   -1.3147    0.0000 N   0  0  0  0  0  0  0  0  0  0  0  0
    6.3570   -0.5812    0.0000 C   0  0  0  0  0  0  0  0  0  0  0  0
    6.3761    0.9186    0.0000 O   0  0  0  0  0  0  0  0  0  0  0  0
    7.6465   -1.3477    0.0000 O   0  0  0  0  0  0  0  0  0  0  0  0
    8.9549   -0.6142    0.0000 C   0  0  0  0  0  0  0  0  0  0  0  0
   10.2443   -1.3807    0.0000 C   0  0  0  0  0  0  0  0  0  0  0  0
   11.5528   -0.6472    0.0000 C   0  0  0  0  0  0  0  0  0  0  0  0
   12.8612    0.0862    0.0000 C   0  0  0  0  0  0  0  0  0  0  0  0
   12.8803    1.5861    0.0000 C   0  0  0  0  0  0  0  0  0  0  0  0
   11.5909    2.3525    0.0000 C   0  0  0  0  0  0  0  0  0  0  0  0
   10.2824    1.6191    0.0000 C   0  0  0  0  0  0  0  0  0  0  0  0
    8.9740    0.8857    0.0000 C   0  0  0  0  0  0  0  0  0  0  0  0
   10.2634    0.1192    0.0000 N   0  0  0  0  0  0  0  0  0  0  0  0
    8.9549   -0.6142    0.0000 C   0  0  0  0  0  0  0  0  0  0  0  0
    7.6655    0.1522    0.0000 C   0  0  0  0  0  0  0  0  0  0  0  0
    6.3570   -0.5812    0.0000 C   0  0  0  0  0  0  0  0  0  0  0  0
    5.0676    0.1852    0.0000 C   0  0  0  0  0  0  0  0  0  0  0  0
    3.7592   -0.5483    0.0000 C   0  0  0  0  0  0  0  0  0  0  0  0
    2.4698    0.2182    0.0000 C   0  0  0  0  0  0  0  0  0  0  0  0
    1.1613   -0.5153    0.0000 C   0  0  0  0  0  0  0  0  0  0  0  0
   -0.1281    0.2512    0.0000 C   0  0  0  0  0  0  0  0  0  0  0  0
   -1.4366   -0.4823    0.0000 C   0  0  0  0  0  0  0  0  0  0  0  0
   -2.7260    0.2842    0.0000 C   0  0  0  0  0  0  0  0  0  0  0  0
   -4.0344   -0.4493    0.0000 N   0  0  0  0  0  0  0  0  0  0  0  0
   -5.3238    0.3171    0.0000 C   0  0  0  0  0  0  0  0  0  0  0  0
   -5.3048    1.8170    0.0000 O   0  0  0  0  0  0  0  0  0  0  0  0
   -6.6323   -0.4163    0.0000 C   0  0  0  0  0  0  0  0  0  0  0  0
   -7.9217    0.3501    0.0000 C   0  0  0  0  0  0  0  0  0  0  0  0
   -9.2302   -0.3833    0.0000 C   0  0  0  0  0  0  0  0  0  0  0  0
  -10.5196    0.3831    0.0000 C   0  0  0  0  0  0  0  0  0  0  0  0
  -11.8280   -0.3503    0.0000 C   0  0  0  0  0  0  0  0  0  0  0  0
  -12.0037   -1.8400    0.0000 S   0  0  0  0  0  0  0  0  0  0  0  0
  -13.4748   -2.1332    0.0000 C   0  0  0  0  0  0  0  0  0  0  0  0
  -14.2082   -0.8248    0.0000 C   0  0  0  0  0  0  0  0  0  0  0  0
  -15.5707   -0.1973    0.0000 N   0  0  0  0  0  0  0  0  0  0  0  0
  -15.3950    1.2924    0.0000 C   0  0  0  0  0  0  0  0  0  0  0  0
  -16.4969    2.3101    0.0000 O   0  0  0  0  0  0  0  0  0  0  0  0
  -13.9239    1.5856    0.0000 N   0  0  0  0  0  0  0  0  0  0  0  0
  -13.1905    0.2771    0.0000 C   0  0  0  0  0  0  0  0  0  0  0  0
  1  2  1  0
  2  3  1  0
  3  4  2  0
  4  5  1  0
  5  6  2  0
  6  7  1  0
  6  8  1  0
  8  9  2  0
  9 10  1  0
 10 11  1  0
 11 12  2  0
 11 13  1  0
 13 14  1  0
 14 15  1  0
 15 16  1  0
 16 17  1  0
 17 18  1  0
 18 19  1  0
 19 20  1  0
 20 21  1  0
 20 22  1  0
 22 23  1  0
 23 24  1  0
 24 25  1  0
 25 26  1  0
 26 27  1  0
 27 28  1  0
 28 29  1  0
 29 30  1  0
 30 31  1  0
 31 32  1  0
 32 33  1  0
 33 34  1  0
 34 35  2  0
 34 36  1  0
 36 37  1  0
 37 38  1  0
 38 39  1  0
 40 39  1  1
 40 41  1  0
 41 42  1  0
 43 42  1  1
 43 44  1  0
 44 45  1  0
 45 46  2  0
 45 47  1  0
 48 47  1  1
  9  3  1  0
 21 14  1  0
 48 40  1  0
 22 16  1  0
 48 43  1  0
M  END
>  <Ki>  (61) 
69.7

>  <database>  (61) 
SRSLDB

$$$$

     RDKit          2D

 23 25  0  0  0  0  0  0  0  0999 V2000
   -0.4266   -4.2186    0.0000 O   0  0  0  0  0  0  0  0  0  0  0  0
    0.3330   -2.9251    0.0000 C   0  0  0  0  0  0  0  0  0  0  0  0
    1.8259   -2.7794    0.0000 S   0  0  0  0  0  0  0  0  0  0  0  0
    2.1486   -1.3145    0.0000 C   0  0  0  0  0  0  0  0  0  0  0  0
    3.4531   -0.5741    0.0000 C   0  0  0  0  0  0  0  0  0  0  0  0
    3.4642    0.9259    0.0000 C   0  0  0  0  0  0  0  0  0  0  0  0
    4.7688    1.6662    0.0000 C   0  0  0  0  0  0  0  0  0  0  0  0
    6.0622    0.9067    0.0000 C   0  0  0  0  0  0  0  0  0  0  0  0
    7.3668    1.6470    0.0000 C   0  0  0  0  0  0  0  0  0  0  0  0
    8.6602    0.8875    0.0000 F   0  0  0  0  0  0  0  0  0  0  0  0
    2.1708    1.6854    0.0000 C   0  0  0  0  0  0  0  0  0  0  0  0
    0.8662    0.9451    0.0000 C   0  0  0  0  0  0  0  0  0  0  0  0
    0.8551   -0.5549    0.0000 C   0  0  0  0  0  0  0  0  0  0  0  0
   -0.2670   -1.5503    0.0000 N   0  0  0  0  0  0  0  0  0  0  0  0
   -1.7319   -1.2276    0.0000 C   0  0  0  0  0  0  0  0  0  0  0  0
   -2.1848    0.2023    0.0000 C   0  0  0  0  0  0  0  0  0  0  0  0
   -3.6497    0.5250    0.0000 N   0  0  0  0  0  0  0  0  0  0  0  0
   -4.5760   -0.6547    0.0000 C   0  0  0  0  0  0  0  0  0  0  0  0
   -6.0760   -0.6661    0.0000 C   0  0  0  0  0  0  0  0  0  0  0  0
   -7.0201    0.4995    0.0000 C   0  0  0  0  0  0  0  0  0  0  0  0
   -6.6974    1.9644    0.0000 C   0  0  0  0  0  0  0  0  0  0  0  0
   -5.3509    2.6254    0.0000 C   0  0  0  0  0  0  0  0  0  0  0  0
   -3.9945    1.9849    0.0000 C   0  0  0  0  0  0  0  0  0  0  0  0
  1  2  2  0
  2  3  1  0
  3  4  1  0
  4  5  2  0
  5  6  1  0
  6  7  1  0
  7  8  1  0
  8  9  1  0
  9 10  1  0
  6 11  2  0
 11 12  1  0
 12 13  2  0
 13 14  1  0
 14 15  1  0
 15 16  1  0
 16 17  1  0
 17 18  1  0
 18 19  1  0
 19 20  1  0
 20 21  1  0
 21 22  1  0
 22 23  1  0
 14  2  1  0
 23 17  1  0
 13  4  1  0
M  END
>  <Compound_Key>  (62) 
[18F]FTC-146

>  <Ki>  (62) 
364.0

>  <database>  (62) 
NewLiterature

>  <Document_ChEMBL_ID>  (62) 
10.1016/j.bmc.2022.117032

$$$$

     RDKit          2D

 32 35  0  0  0  0  0  0  0  0999 V2000
  -10.0065   -0.2586    0.0000 C   0  0  0  0  0  0  0  0  0  0  0  0
   -8.8881   -1.2581    0.0000 O   0  0  0  0  0  0  0  0  0  0  0  0
   -7.4632   -0.7892    0.0000 C   0  0  0  0  0  0  0  0  0  0  0  0
   -7.1569    0.6792    0.0000 C   0  0  0  0  0  0  0  0  0  0  0  0
   -5.7320    1.1480    0.0000 C   0  0  0  0  0  0  0  0  0  0  0  0
   -4.6135    0.1485    0.0000 C   0  0  0  0  0  0  0  0  0  0  0  0
   -4.9199   -1.3199    0.0000 C   0  0  0  0  0  0  0  0  0  0  0  0
   -6.3447   -1.7887    0.0000 C   0  0  0  0  0  0  0  0  0  0  0  0
   -6.6511   -3.2571    0.0000 O   0  0  0  0  0  0  0  0  0  0  0  0
   -5.5326   -4.2566    0.0000 C   0  0  0  0  0  0  0  0  0  0  0  0
   -3.1887    0.6174    0.0000 C   0  0  0  0  0  0  0  0  0  0  0  0
   -2.8824    2.0858    0.0000 N   0  0  0  0  0  0  0  0  0  0  0  0
   -1.4575    2.5547    0.0000 C   0  0  0  0  0  0  0  0  0  0  0  0
   -0.3390    1.5552    0.0000 C   0  0  0  0  0  0  0  0  0  0  0  0
    1.0858    2.0240    0.0000 C   0  0  0  0  0  0  0  0  0  0  0  0
    2.2043    1.0245    0.0000 N   0  0  0  0  0  0  0  0  0  0  0  0
    1.8979   -0.4439    0.0000 C   0  0  0  0  0  0  0  0  0  0  0  0
    3.0164   -1.4434    0.0000 C   0  0  0  0  0  0  0  0  0  0  0  0
    4.4412   -0.9745    0.0000 C   0  0  0  0  0  0  0  0  0  0  0  0
    5.5597   -1.9740    0.0000 C   0  0  0  0  0  0  0  0  0  0  0  0
    6.9845   -1.5051    0.0000 C   0  0  0  0  0  0  0  0  0  0  0  0
    8.1030   -2.5046    0.0000 O   0  0  0  0  0  0  0  0  0  0  0  0
    7.7966   -3.9730    0.0000 C   0  0  0  0  0  0  0  0  0  0  0  0
    7.2909   -0.0367    0.0000 C   0  0  0  0  0  0  0  0  0  0  0  0
    8.7157    0.4321    0.0000 O   0  0  0  0  0  0  0  0  0  0  0  0
    9.0221    1.9005    0.0000 C   0  0  0  0  0  0  0  0  0  0  0  0
    6.1724    0.9628    0.0000 C   0  0  0  0  0  0  0  0  0  0  0  0
    4.7476    0.4939    0.0000 C   0  0  0  0  0  0  0  0  0  0  0  0
    3.6291    1.4934    0.0000 C   0  0  0  0  0  0  0  0  0  0  0  0
    3.9355    2.9618    0.0000 O   0  0  0  0  0  0  0  0  0  0  0  0
   -4.0008    3.0853    0.0000 C   0  0  0  0  0  0  0  0  0  0  0  0
   -5.4257    2.6164    0.0000 C   0  0  0  0  0  0  0  0  0  0  0  0
  1  2  1  0
  2  3  1  0
  3  4  2  0
  4  5  1  0
  5  6  2  0
  6  7  1  0
  7  8  2  0
  8  9  1  0
  9 10  1  0
  6 11  1  0
 11 12  1  0
 12 13  1  0
 13 14  1  0
 14 15  1  0
 15 16  1  0
 16 17  1  0
 17 18  1  0
 18 19  1  0
 19 20  2  0
 20 21  1  0
 21 22  1  0
 22 23  1  0
 21 24  2  0
 24 25  1  0
 25 26  1  0
 24 27  1  0
 27 28  2  0
 28 29  1  0
 29 30  2  0
 12 31  1  0
 31 32  1  0
  8  3  1  0
 29 16  1  0
 32  5  1  0
 28 19  1  0
M  END
>  <ChemBL_ID>  (63) 
CHEMBL2437382

>  <Ki>  (63) 
20.1

>  <database>  (63) 
SRSLDB

$$$$

     RDKit          2D

 31 34  0  0  0  0  0  0  0  0999 V2000
  -10.7486    0.4385    0.0000 C   0  0  0  0  0  0  0  0  0  0  0  0
   -9.7738   -0.7016    0.0000 O   0  0  0  0  0  0  0  0  0  0  0  0
   -8.2991   -0.4275    0.0000 C   0  0  0  0  0  0  0  0  0  0  0  0
   -7.7991    0.9867    0.0000 C   0  0  0  0  0  0  0  0  0  0  0  0
   -6.3243    1.2607    0.0000 C   0  0  0  0  0  0  0  0  0  0  0  0
   -5.3496    0.1206    0.0000 C   0  0  0  0  0  0  0  0  0  0  0  0
   -5.8496   -1.2936    0.0000 C   0  0  0  0  0  0  0  0  0  0  0  0
   -7.3244   -1.5677    0.0000 C   0  0  0  0  0  0  0  0  0  0  0  0
   -7.8244   -2.9819    0.0000 O   0  0  0  0  0  0  0  0  0  0  0  0
   -6.8497   -4.1220    0.0000 C   0  0  0  0  0  0  0  0  0  0  0  0
   -3.8748    0.3947    0.0000 C   0  0  0  0  0  0  0  0  0  0  0  0
   -3.3748    1.8089    0.0000 N   0  0  0  0  0  0  0  0  0  0  0  0
   -1.9001    2.0829    0.0000 C   0  0  0  0  0  0  0  0  0  0  0  0
   -0.9253    0.9428    0.0000 C   0  0  0  0  0  0  0  0  0  0  0  0
    0.5494    1.2169    0.0000 C   0  0  0  0  0  0  0  0  0  0  0  0
    1.5241    0.0767    0.0000 C   0  0  0  0  0  0  0  0  0  0  0  0
    2.9989    0.3508    0.0000 N   0  0  0  0  0  0  0  0  0  0  0  0
    3.9736   -0.7893    0.0000 C   0  0  0  0  0  0  0  0  0  0  0  0
    3.4736   -2.2035    0.0000 O   0  0  0  0  0  0  0  0  0  0  0  0
    5.4484   -0.5153    0.0000 C   0  0  0  0  0  0  0  0  0  0  0  0
    6.5369   -1.5473    0.0000 C   0  0  0  0  0  0  0  0  0  0  0  0
    7.8548   -0.8309    0.0000 C   0  0  0  0  0  0  0  0  0  0  0  0
    9.2690   -1.3309    0.0000 C   0  0  0  0  0  0  0  0  0  0  0  0
   10.4091   -0.3562    0.0000 C   0  0  0  0  0  0  0  0  0  0  0  0
   11.8233   -0.8562    0.0000 I   0  0  0  0  0  0  0  0  0  0  0  0
   10.1351    1.1186    0.0000 C   0  0  0  0  0  0  0  0  0  0  0  0
    8.7209    1.6186    0.0000 C   0  0  0  0  0  0  0  0  0  0  0  0
    7.5807    0.6439    0.0000 C   0  0  0  0  0  0  0  0  0  0  0  0
    6.0935    0.8389    0.0000 O   0  0  0  0  0  0  0  0  0  0  0  0
   -4.3495    2.9490    0.0000 C   0  0  0  0  0  0  0  0  0  0  0  0
   -5.8243    2.6749    0.0000 C   0  0  0  0  0  0  0  0  0  0  0  0
  1  2  1  0
  2  3  1  0
  3  4  2  0
  4  5  1  0
  5  6  2  0
  6  7  1  0
  7  8  2  0
  8  9  1  0
  9 10  1  0
  6 11  1  0
 11 12  1  0
 12 13  1  0
 13 14  1  0
 14 15  1  0
 15 16  1  0
 16 17  1  0
 17 18  1  0
 18 19  2  0
 18 20  1  0
 20 21  2  0
 21 22  1  0
 22 23  2  0
 23 24  1  0
 24 25  1  0
 24 26  2  0
 26 27  1  0
 27 28  2  0
 28 29  1  0
 12 30  1  0
 30 31  1  0
  8  3  1  0
 29 20  1  0
 31  5  1  0
 28 22  1  0
M  END
>  <Ki>  (64) 
6.2

>  <database>  (64) 
SRSLDB

$$$$

     RDKit          2D

 33 36  0  0  0  0  0  0  0  0999 V2000
  -11.0718    0.3569    0.0000 C   0  0  0  0  0  0  0  0  0  0  0  0
   -9.6407   -0.0924    0.0000 O   0  0  0  0  0  0  0  0  0  0  0  0
   -8.5360    0.9223    0.0000 C   0  0  0  0  0  0  0  0  0  0  0  0
   -8.8624    2.3864    0.0000 C   0  0  0  0  0  0  0  0  0  0  0  0
   -7.7577    3.4011    0.0000 C   0  0  0  0  0  0  0  0  0  0  0  0
   -6.3266    2.9518    0.0000 C   0  0  0  0  0  0  0  0  0  0  0  0
   -6.0002    1.4877    0.0000 C   0  0  0  0  0  0  0  0  0  0  0  0
   -7.1049    0.4730    0.0000 C   0  0  0  0  0  0  0  0  0  0  0  0
   -6.7784   -0.9910    0.0000 C   0  0  0  0  0  0  0  0  0  0  0  0
   -5.3473   -1.4404    0.0000 N   0  0  0  0  0  0  0  0  0  0  0  0
   -4.1426   -0.5467    0.0000 C   0  0  0  0  0  0  0  0  0  0  0  0
   -2.9204   -1.4162    0.0000 C   0  0  0  0  0  0  0  0  0  0  0  0
   -1.4985   -0.9385    0.0000 C   0  0  0  0  0  0  0  0  0  0  0  0
   -1.2012    0.5317    0.0000 O   0  0  0  0  0  0  0  0  0  0  0  0
   -0.3738   -1.9311    0.0000 N   0  0  0  0  0  0  0  0  0  0  0  0
    1.0481   -1.4534    0.0000 C   0  0  0  0  0  0  0  0  0  0  0  0
    2.1727   -2.4460    0.0000 C   0  0  0  0  0  0  0  0  0  0  0  0
    3.5946   -1.9683    0.0000 N   0  0  0  0  0  0  0  0  0  0  0  0
    4.7193   -2.9609    0.0000 C   0  0  0  0  0  0  0  0  0  0  0  0
    6.1412   -2.4832    0.0000 C   0  0  0  0  0  0  0  0  0  0  0  0
    6.4384   -1.0129    0.0000 C   0  0  0  0  0  0  0  0  0  0  0  0
    7.8604   -0.5353    0.0000 C   0  0  0  0  0  0  0  0  0  0  0  0
    8.1576    0.9350    0.0000 C   0  0  0  0  0  0  0  0  0  0  0  0
    9.5795    1.4127    0.0000 O   0  0  0  0  0  0  0  0  0  0  0  0
   10.7042    0.4201    0.0000 C   0  0  0  0  0  0  0  0  0  0  0  0
    7.0330    1.9276    0.0000 C   0  0  0  0  0  0  0  0  0  0  0  0
    7.3303    3.3978    0.0000 O   0  0  0  0  0  0  0  0  0  0  0  0
    6.2056    4.3904    0.0000 C   0  0  0  0  0  0  0  0  0  0  0  0
    5.6111    1.4499    0.0000 C   0  0  0  0  0  0  0  0  0  0  0  0
    5.3138   -0.0204    0.0000 C   0  0  0  0  0  0  0  0  0  0  0  0
    3.8919   -0.4981    0.0000 C   0  0  0  0  0  0  0  0  0  0  0  0
   -3.3697   -2.8474    0.0000 N   0  0  0  0  0  0  0  0  0  0  0  0
   -4.8696   -2.8623    0.0000 N   0  0  0  0  0  0  0  0  0  0  0  0
  1  2  1  0
  2  3  1  0
  3  4  2  0
  4  5  1  0
  5  6  2  0
  6  7  1  0
  7  8  2  0
  8  9  1  0
  9 10  1  0
 10 11  1  0
 11 12  2  0
 12 13  1  0
 13 14  2  0
 13 15  1  0
 15 16  1  0
 16 17  1  0
 17 18  1  0
 18 19  1  0
 19 20  1  0
 20 21  1  0
 21 22  2  0
 22 23  1  0
 23 24  1  0
 24 25  1  0
 23 26  2  0
 26 27  1  0
 27 28  1  0
 26 29  1  0
 29 30  2  0
 30 31  1  0
 12 32  1  0
 32 33  2  0
  8  3  1  0
 33 10  1  0
 31 18  1  0
 30 21  1  0
M  END
>  <ChemBL_ID>  (65) 
CHEMBL3262531

>  <Ki>  (65) 
156.0

>  <database>  (65) 
SRSLDB

$$$$

     RDKit          2D

 32 37  0  0  0  0  0  0  0  0999 V2000
    3.8145    3.1397    0.0000 C   0  0  0  0  0  0  0  0  0  0  0  0
    3.1943    1.7740    0.0000 O   0  0  0  0  0  0  0  0  0  0  0  0
    4.0670    0.5539    0.0000 C   0  0  0  0  0  0  0  0  0  0  0  0
    3.4468   -0.8118    0.0000 C   0  0  0  0  0  0  0  0  0  0  0  0
    1.9539   -0.9576    0.0000 C   0  0  0  0  0  0  0  0  0  0  0  0
    1.3337   -2.3234    0.0000 O   0  0  0  0  0  0  0  0  0  0  0  0
    1.0812    0.2624    0.0000 N   0  0  0  0  0  0  0  0  0  0  0  0
   -0.4117    0.1166    0.0000 C   0  0  0  0  0  0  0  0  0  0  0  0
   -1.2844    1.3366    0.0000 C   0  0  0  0  0  0  0  0  0  0  0  0
   -2.7773    1.1909    0.0000 C   0  0  0  0  0  0  0  0  0  0  0  0
   -3.3975   -0.1749    0.0000 N   0  0  0  0  0  0  0  0  0  0  0  0
   -4.8904   -0.3207    0.0000 C   0  0  0  0  0  0  0  0  0  0  0  0
   -5.7631    0.8993    0.0000 C   0  0  0  0  0  0  0  0  0  0  0  0
   -6.3833   -0.4664    0.0000 C   0  0  0  0  0  0  0  0  0  0  0  0
   -7.8762   -0.6122    0.0000 C   0  0  0  0  0  0  0  0  0  0  0  0
   -8.7489    0.6078    0.0000 C   0  0  0  0  0  0  0  0  0  0  0  0
   -8.1287    1.9736    0.0000 C   0  0  0  0  0  0  0  0  0  0  0  0
   -5.6564   -0.1935    0.0000 C   0  0  0  0  0  0  0  0  0  0  0  0
   -5.5106   -1.6864    0.0000 C   0  0  0  0  0  0  0  0  0  0  0  0
   -7.0035   -1.8322    0.0000 C   0  0  0  0  0  0  0  0  0  0  0  0
   -6.6358    2.1193    0.0000 C   0  0  0  0  0  0  0  0  0  0  0  0
   -2.5248   -1.3949    0.0000 C   0  0  0  0  0  0  0  0  0  0  0  0
   -1.0319   -1.2491    0.0000 C   0  0  0  0  0  0  0  0  0  0  0  0
    4.3195   -2.0318    0.0000 C   0  0  0  0  0  0  0  0  0  0  0  0
    5.8124   -1.8861    0.0000 C   0  0  0  0  0  0  0  0  0  0  0  0
    6.6850   -3.1061    0.0000 Br  0  0  0  0  0  0  0  0  0  0  0  0
    6.4326   -0.5203    0.0000 C   0  0  0  0  0  0  0  0  0  0  0  0
    7.9255   -0.3745    0.0000 C   0  0  0  0  0  0  0  0  0  0  0  0
    8.5457    0.9912    0.0000 C   0  0  0  0  0  0  0  0  0  0  0  0
    7.6730    2.2113    0.0000 C   0  0  0  0  0  0  0  0  0  0  0  0
    6.1801    2.0655    0.0000 C   0  0  0  0  0  0  0  0  0  0  0  0
    5.5599    0.6997    0.0000 C   0  0  0  0  0  0  0  0  0  0  0  0
  1  2  1  0
  2  3  1  0
  3  4  2  0
  4  5  1  0
  5  6  2  0
  5  7  1  0
  7  8  1  0
  8  9  1  0
  9 10  1  0
 10 11  1  0
 11 12  1  0
 12 13  1  0
 13 14  1  6
 15 14  1  6
 15 16  1  0
 17 16  1  6
 17 18  1  0
 19 18  1  1
 19 20  1  0
 17 21  1  0
 11 22  1  0
 22 23  1  0
  4 24  1  0
 24 25  2  0
 25 26  1  0
 25 27  1  0
 27 28  2  0
 28 29  1  0
 29 30  2  0
 30 31  1  0
 31 32  2  0
 32  3  1  0
 23  8  1  0
 32 27  1  0
 19 12  1  0
 21 13  1  0
 20 15  1  0
M  END
>  <ChemBL_ID>  (66) 
CHEMBL50352

>  <Compound_Key>  (66) 
6

>  <Ki>  (66) 
55.0

>  <database>  (66) 
CHEMBL

>  <Assay_ChEMBL_ID>  (66) 
CHEMBL808906

>  <Document_ChEMBL_ID>  (66) 
CHEMBL1134687

$$$$

     RDKit          2D

 31 34  0  0  0  0  0  0  0  0999 V2000
  -10.0861   -0.5846    0.0000 C   0  0  0  0  0  0  0  0  0  0  0  0
   -8.9143   -1.5210    0.0000 O   0  0  0  0  0  0  0  0  0  0  0  0
   -7.5175   -0.9744    0.0000 C   0  0  0  0  0  0  0  0  0  0  0  0
   -7.2924    0.5086    0.0000 C   0  0  0  0  0  0  0  0  0  0  0  0
   -5.8956    1.0553    0.0000 C   0  0  0  0  0  0  0  0  0  0  0  0
   -4.7238    0.1189    0.0000 C   0  0  0  0  0  0  0  0  0  0  0  0
   -4.9488   -1.3641    0.0000 C   0  0  0  0  0  0  0  0  0  0  0  0
   -6.3456   -1.9108    0.0000 C   0  0  0  0  0  0  0  0  0  0  0  0
   -6.5707   -3.3938    0.0000 O   0  0  0  0  0  0  0  0  0  0  0  0
   -5.3988   -4.3302    0.0000 C   0  0  0  0  0  0  0  0  0  0  0  0
   -3.3269    0.6655    0.0000 C   0  0  0  0  0  0  0  0  0  0  0  0
   -3.1019    2.1485    0.0000 N   0  0  0  0  0  0  0  0  0  0  0  0
   -1.7050    2.6952    0.0000 C   0  0  0  0  0  0  0  0  0  0  0  0
   -0.5332    1.7588    0.0000 C   0  0  0  0  0  0  0  0  0  0  0  0
    0.8637    2.3054    0.0000 C   0  0  0  0  0  0  0  0  0  0  0  0
    2.0355    1.3690    0.0000 C   0  0  0  0  0  0  0  0  0  0  0  0
    3.4323    1.9156    0.0000 C   0  0  0  0  0  0  0  0  0  0  0  0
    4.6042    0.9793    0.0000 N   0  0  0  0  0  0  0  0  0  0  0  0
    4.5354   -0.5192    0.0000 C   0  0  0  0  0  0  0  0  0  0  0  0
    3.2827   -1.3443    0.0000 O   0  0  0  0  0  0  0  0  0  0  0  0
    5.9392   -1.0476    0.0000 C   0  0  0  0  0  0  0  0  0  0  0  0
    6.4858   -2.4445    0.0000 C   0  0  0  0  0  0  0  0  0  0  0  0
    7.9689   -2.6695    0.0000 C   0  0  0  0  0  0  0  0  0  0  0  0
    8.9053   -1.4977    0.0000 C   0  0  0  0  0  0  0  0  0  0  0  0
   10.3883   -1.7227    0.0000 F   0  0  0  0  0  0  0  0  0  0  0  0
    8.3586   -0.1008    0.0000 C   0  0  0  0  0  0  0  0  0  0  0  0
    6.8756    0.1242    0.0000 C   0  0  0  0  0  0  0  0  0  0  0  0
    6.0505    1.3769    0.0000 C   0  0  0  0  0  0  0  0  0  0  0  0
    6.5789    2.7807    0.0000 O   0  0  0  0  0  0  0  0  0  0  0  0
   -4.2737    3.0849    0.0000 C   0  0  0  0  0  0  0  0  0  0  0  0
   -5.6705    2.5383    0.0000 C   0  0  0  0  0  0  0  0  0  0  0  0
  1  2  1  0
  2  3  1  0
  3  4  2  0
  4  5  1  0
  5  6  2  0
  6  7  1  0
  7  8  2  0
  8  9  1  0
  9 10  1  0
  6 11  1  0
 11 12  1  0
 12 13  1  0
 13 14  1  0
 14 15  1  0
 15 16  1  0
 16 17  1  0
 17 18  1  0
 18 19  1  0
 19 20  2  0
 19 21  1  0
 21 22  2  0
 22 23  1  0
 23 24  2  0
 24 25  1  0
 24 26  1  0
 26 27  2  0
 27 28  1  0
 28 29  2  0
 12 30  1  0
 30 31  1  0
  8  3  1  0
 28 18  1  0
 31  5  1  0
 27 21  1  0
M  END
>  <Ki>  (67) 
2.4

>  <database>  (67) 
SRSLDB

$$$$

     RDKit          2D

 38 41  0  0  0  0  0  0  0  0999 V2000
  -13.6115    1.2201    0.0000 C   0  0  0  0  0  0  0  0  0  0  0  0
  -12.7531   -0.0101    0.0000 O   0  0  0  0  0  0  0  0  0  0  0  0
  -11.2586    0.1183    0.0000 C   0  0  0  0  0  0  0  0  0  0  0  0
  -10.6225    1.4767    0.0000 C   0  0  0  0  0  0  0  0  0  0  0  0
   -9.1280    1.6050    0.0000 C   0  0  0  0  0  0  0  0  0  0  0  0
   -8.2696    0.3749    0.0000 C   0  0  0  0  0  0  0  0  0  0  0  0
   -8.9057   -0.9836    0.0000 C   0  0  0  0  0  0  0  0  0  0  0  0
  -10.4002   -1.1119    0.0000 C   0  0  0  0  0  0  0  0  0  0  0  0
  -11.0364   -2.4703    0.0000 O   0  0  0  0  0  0  0  0  0  0  0  0
  -10.1780   -3.7004    0.0000 C   0  0  0  0  0  0  0  0  0  0  0  0
   -6.7751    0.5032    0.0000 C   0  0  0  0  0  0  0  0  0  0  0  0
   -6.1390    1.8616    0.0000 N   0  0  0  0  0  0  0  0  0  0  0  0
   -4.6445    1.9899    0.0000 C   0  0  0  0  0  0  0  0  0  0  0  0
   -3.7861    0.7598    0.0000 C   0  0  0  0  0  0  0  0  0  0  0  0
   -2.2916    0.8881    0.0000 C   0  0  0  0  0  0  0  0  0  0  0  0
   -1.4332   -0.3420    0.0000 C   0  0  0  0  0  0  0  0  0  0  0  0
    0.0613   -0.2137    0.0000 N   0  0  0  0  0  0  0  0  0  0  0  0
    0.9196   -1.4438    0.0000 C   0  0  0  0  0  0  0  0  0  0  0  0
    0.2835   -2.8023    0.0000 O   0  0  0  0  0  0  0  0  0  0  0  0
    2.4142   -1.3155    0.0000 C   0  0  0  0  0  0  0  0  0  0  0  0
    3.2725   -2.5456    0.0000 C   0  0  0  0  0  0  0  0  0  0  0  0
    4.7670   -2.4173    0.0000 C   0  0  0  0  0  0  0  0  0  0  0  0
    5.4032   -1.0589    0.0000 C   0  0  0  0  0  0  0  0  0  0  0  0
    6.8977   -0.9306    0.0000 C   0  0  0  0  0  0  0  0  0  0  0  0
    7.6723    0.3539    0.0000 C   0  0  0  0  0  0  0  0  0  0  0  0
    9.1333    0.0141    0.0000 N   0  0  0  0  0  0  0  0  0  0  0  0
   10.2670    0.9964    0.0000 C   0  0  0  0  0  0  0  0  0  0  0  0
   11.6844    0.5057    0.0000 C   0  0  0  0  0  0  0  0  0  0  0  0
   12.8181    1.4880    0.0000 O   0  0  0  0  0  0  0  0  0  0  0  0
   14.2356    0.9973    0.0000 C   0  0  0  0  0  0  0  0  0  0  0  0
   15.3692    1.9796    0.0000 C   0  0  0  0  0  0  0  0  0  0  0  0
   16.7867    1.4889    0.0000 F   0  0  0  0  0  0  0  0  0  0  0  0
    9.2616   -1.4804    0.0000 N   0  0  0  0  0  0  0  0  0  0  0  0
    7.8799   -2.0642    0.0000 N   0  0  0  0  0  0  0  0  0  0  0  0
    4.5448    0.1712    0.0000 C   0  0  0  0  0  0  0  0  0  0  0  0
    3.0503    0.0429    0.0000 C   0  0  0  0  0  0  0  0  0  0  0  0
   -6.9973    3.0917    0.0000 C   0  0  0  0  0  0  0  0  0  0  0  0
   -8.4918    2.9634    0.0000 C   0  0  0  0  0  0  0  0  0  0  0  0
  1  2  1  0
  2  3  1  0
  3  4  2  0
  4  5  1  0
  5  6  2  0
  6  7  1  0
  7  8  2  0
  8  9  1  0
  9 10  1  0
  6 11  1  0
 11 12  1  0
 12 13  1  0
 13 14  1  0
 14 15  1  0
 15 16  1  0
 16 17  1  0
 17 18  1  0
 18 19  2  0
 18 20  1  0
 20 21  2  0
 21 22  1  0
 22 23  2  0
 23 24  1  0
 24 25  2  0
 25 26  1  0
 26 27  1  0
 27 28  1  0
 28 29  1  0
 29 30  1  0
 30 31  1  0
 31 32  1  0
 26 33  1  0
 33 34  2  0
 23 35  1  0
 35 36  2  0
 12 37  1  0
 37 38  1  0
  8  3  1  0
 36 20  1  0
 38  5  1  0
 34 24  1  0
M  END
>  <ChemBL_ID>  (68) 
CHEMBL3262535

>  <Ki>  (68) 
137.0

>  <database>  (68) 
SRSLDB

$$$$

     RDKit          2D

 27 30  0  0  0  0  0  0  0  0999 V2000
    5.0430   -3.9605    0.0000 O   0  0  0  0  0  0  0  0  0  0  0  0
    5.3439   -2.4910    0.0000 C   0  0  0  0  0  0  0  0  0  0  0  0
    6.7096   -1.8706    0.0000 O   0  0  0  0  0  0  0  0  0  0  0  0
    6.5416   -0.3800    0.0000 C   0  0  0  0  0  0  0  0  0  0  0  0
    7.5369    0.7422    0.0000 C   0  0  0  0  0  0  0  0  0  0  0  0
    7.0627    2.1652    0.0000 C   0  0  0  0  0  0  0  0  0  0  0  0
    5.5932    2.4661    0.0000 C   0  0  0  0  0  0  0  0  0  0  0  0
    5.1190    3.8892    0.0000 Br  0  0  0  0  0  0  0  0  0  0  0  0
    4.5979    1.3439    0.0000 C   0  0  0  0  0  0  0  0  0  0  0  0
    5.0721   -0.0792    0.0000 C   0  0  0  0  0  0  0  0  0  0  0  0
    4.3319   -1.3838    0.0000 N   0  0  0  0  0  0  0  0  0  0  0  0
    2.8413   -1.5518    0.0000 C   0  0  0  0  0  0  0  0  0  0  0  0
    1.9505   -0.3449    0.0000 C   0  0  0  0  0  0  0  0  0  0  0  0
    0.4600   -0.5128    0.0000 C   0  0  0  0  0  0  0  0  0  0  0  0
   -0.4308    0.6940    0.0000 C   0  0  0  0  0  0  0  0  0  0  0  0
   -1.9213    0.5261    0.0000 N   0  0  0  0  0  0  0  0  0  0  0  0
   -2.8121    1.7330    0.0000 C   0  0  0  0  0  0  0  0  0  0  0  0
   -4.3026    1.5650    0.0000 C   0  0  0  0  0  0  0  0  0  0  0  0
   -4.9025    0.1901    0.0000 N   0  0  0  0  0  0  0  0  0  0  0  0
   -6.3930    0.0222    0.0000 C   0  0  0  0  0  0  0  0  0  0  0  0
   -7.2838    1.2291    0.0000 C   0  0  0  0  0  0  0  0  0  0  0  0
   -8.7743    1.0611    0.0000 C   0  0  0  0  0  0  0  0  0  0  0  0
   -9.3742   -0.3138    0.0000 C   0  0  0  0  0  0  0  0  0  0  0  0
   -8.4834   -1.5207    0.0000 C   0  0  0  0  0  0  0  0  0  0  0  0
   -6.9928   -1.3527    0.0000 C   0  0  0  0  0  0  0  0  0  0  0  0
   -4.0117   -1.0167    0.0000 C   0  0  0  0  0  0  0  0  0  0  0  0
   -2.5211   -0.8488    0.0000 C   0  0  0  0  0  0  0  0  0  0  0  0
  1  2  2  0
  2  3  1  0
  3  4  1  0
  4  5  2  0
  5  6  1  0
  6  7  2  0
  7  8  1  0
  7  9  1  0
  9 10  2  0
 10 11  1  0
 11 12  1  0
 12 13  1  0
 13 14  1  0
 14 15  1  0
 15 16  1  0
 16 17  1  0
 17 18  1  0
 18 19  1  0
 19 20  1  0
 20 21  1  0
 21 22  1  0
 22 23  1  0
 23 24  1  0
 24 25  1  0
 19 26  1  0
 26 27  1  0
 11  2  1  0
 27 16  1  0
 10  4  1  0
 25 20  1  0
M  END
>  <Ki>  (69) 
0.053

>  <database>  (69) 
SRSLDB

$$$$

     RDKit          2D

 32 35  0  0  0  0  0  0  0  0999 V2000
   -9.9797    1.7274    0.0000 C   0  0  0  0  0  0  0  0  0  0  0  0
   -9.3102    0.3850    0.0000 O   0  0  0  0  0  0  0  0  0  0  0  0
   -7.8130    0.2936    0.0000 C   0  0  0  0  0  0  0  0  0  0  0  0
   -6.9853    1.5446    0.0000 C   0  0  0  0  0  0  0  0  0  0  0  0
   -5.4880    1.4532    0.0000 C   0  0  0  0  0  0  0  0  0  0  0  0
   -4.8186    0.1109    0.0000 C   0  0  0  0  0  0  0  0  0  0  0  0
   -5.6463   -1.1401    0.0000 C   0  0  0  0  0  0  0  0  0  0  0  0
   -7.1435   -1.0487    0.0000 C   0  0  0  0  0  0  0  0  0  0  0  0
   -7.9713   -2.2996    0.0000 O   0  0  0  0  0  0  0  0  0  0  0  0
   -7.3018   -3.6419    0.0000 C   0  0  0  0  0  0  0  0  0  0  0  0
   -3.3214    0.0195    0.0000 C   0  0  0  0  0  0  0  0  0  0  0  0
   -2.4936    1.2704    0.0000 N   0  0  0  0  0  0  0  0  0  0  0  0
   -0.9964    1.1790    0.0000 C   0  0  0  0  0  0  0  0  0  0  0  0
   -0.3269   -0.1633    0.0000 C   0  0  0  0  0  0  0  0  0  0  0  0
    1.1703   -0.2547    0.0000 N   0  0  0  0  0  0  0  0  0  0  0  0
    1.8397   -1.5970    0.0000 C   0  0  0  0  0  0  0  0  0  0  0  0
    1.0120   -2.8479    0.0000 O   0  0  0  0  0  0  0  0  0  0  0  0
    3.3370   -1.6884    0.0000 C   0  0  0  0  0  0  0  0  0  0  0  0
    4.2909   -0.5308    0.0000 C   0  0  0  0  0  0  0  0  0  0  0  0
    5.6866   -1.0804    0.0000 N   0  0  0  0  0  0  0  0  0  0  0  0
    6.9516   -0.2743    0.0000 C   0  0  0  0  0  0  0  0  0  0  0  0
    8.2822   -0.9667    0.0000 C   0  0  0  0  0  0  0  0  0  0  0  0
    9.5472   -0.1606    0.0000 C   0  0  0  0  0  0  0  0  0  0  0  0
    9.4816    1.3379    0.0000 C   0  0  0  0  0  0  0  0  0  0  0  0
    8.1510    2.0304    0.0000 C   0  0  0  0  0  0  0  0  0  0  0  0
    6.8860    1.2243    0.0000 C   0  0  0  0  0  0  0  0  0  0  0  0
    5.5554    1.9167    0.0000 O   0  0  0  0  0  0  0  0  0  0  0  0
    5.4898    3.4153    0.0000 C   0  0  0  0  0  0  0  0  0  0  0  0
    5.5952   -2.5776    0.0000 N   0  0  0  0  0  0  0  0  0  0  0  0
    4.1431   -2.9533    0.0000 N   0  0  0  0  0  0  0  0  0  0  0  0
   -3.1631    2.6127    0.0000 C   0  0  0  0  0  0  0  0  0  0  0  0
   -4.6603    2.7041    0.0000 C   0  0  0  0  0  0  0  0  0  0  0  0
  1  2  1  0
  2  3  1  0
  3  4  2  0
  4  5  1  0
  5  6  2  0
  6  7  1  0
  7  8  2  0
  8  9  1  0
  9 10  1  0
  6 11  1  0
 11 12  1  0
 12 13  1  0
 13 14  1  0
 14 15  1  0
 15 16  1  0
 16 17  2  0
 16 18  1  0
 18 19  2  0
 19 20  1  0
 20 21  1  0
 21 22  2  0
 22 23  1  0
 23 24  2  0
 24 25  1  0
 25 26  2  0
 26 27  1  0
 27 28  1  0
 20 29  1  0
 29 30  2  0
 12 31  1  0
 31 32  1  0
  8  3  1  0
 30 18  1  0
 32  5  1  0
 26 21  1  0
M  END
>  <ChemBL_ID>  (70) 
CHEMBL3262529

>  <Ki>  (70) 
150.0

>  <database>  (70) 
SRSLDB

$$$$

     RDKit          2D

 30 33  0  0  0  0  0  0  0  0999 V2000
   -9.3774    0.3039    0.0000 C   0  0  0  0  0  0  0  0  0  0  0  0
   -8.3573   -0.7958    0.0000 O   0  0  0  0  0  0  0  0  0  0  0  0
   -6.8948   -0.4623    0.0000 C   0  0  0  0  0  0  0  0  0  0  0  0
   -6.4525    0.9710    0.0000 C   0  0  0  0  0  0  0  0  0  0  0  0
   -4.9900    1.3046    0.0000 C   0  0  0  0  0  0  0  0  0  0  0  0
   -3.9700    0.2049    0.0000 C   0  0  0  0  0  0  0  0  0  0  0  0
   -4.4123   -1.2284    0.0000 C   0  0  0  0  0  0  0  0  0  0  0  0
   -5.8747   -1.5620    0.0000 C   0  0  0  0  0  0  0  0  0  0  0  0
   -6.3171   -2.9953    0.0000 O   0  0  0  0  0  0  0  0  0  0  0  0
   -5.2970   -4.0950    0.0000 C   0  0  0  0  0  0  0  0  0  0  0  0
   -2.5075    0.5384    0.0000 C   0  0  0  0  0  0  0  0  0  0  0  0
   -2.0652    1.9717    0.0000 N   0  0  0  0  0  0  0  0  0  0  0  0
   -0.6027    2.3053    0.0000 C   0  0  0  0  0  0  0  0  0  0  0  0
    0.4174    1.2055    0.0000 C   0  0  0  0  0  0  0  0  0  0  0  0
    1.8798    1.5391    0.0000 C   0  0  0  0  0  0  0  0  0  0  0  0
    2.8999    0.4394    0.0000 N   0  0  0  0  0  0  0  0  0  0  0  0
    2.4576   -0.9939    0.0000 C   0  0  0  0  0  0  0  0  0  0  0  0
    3.4776   -2.0937    0.0000 C   0  0  0  0  0  0  0  0  0  0  0  0
    4.9401   -1.7601    0.0000 C   0  0  0  0  0  0  0  0  0  0  0  0
    5.9602   -2.8598    0.0000 C   0  0  0  0  0  0  0  0  0  0  0  0
    7.4226   -2.5263    0.0000 C   0  0  0  0  0  0  0  0  0  0  0  0
    7.8650   -1.0930    0.0000 C   0  0  0  0  0  0  0  0  0  0  0  0
    6.8449    0.0067    0.0000 C   0  0  0  0  0  0  0  0  0  0  0  0
    7.2872    1.4400    0.0000 O   0  0  0  0  0  0  0  0  0  0  0  0
    8.7497    1.7736    0.0000 C   0  0  0  0  0  0  0  0  0  0  0  0
    5.3824   -0.3268    0.0000 C   0  0  0  0  0  0  0  0  0  0  0  0
    4.3624    0.7729    0.0000 C   0  0  0  0  0  0  0  0  0  0  0  0
    4.8047    2.2062    0.0000 O   0  0  0  0  0  0  0  0  0  0  0  0
   -3.0853    3.0714    0.0000 C   0  0  0  0  0  0  0  0  0  0  0  0
   -4.5477    2.7379    0.0000 C   0  0  0  0  0  0  0  0  0  0  0  0
  1  2  1  0
  2  3  1  0
  3  4  2  0
  4  5  1  0
  5  6  2  0
  6  7  1  0
  7  8  2  0
  8  9  1  0
  9 10  1  0
  6 11  1  0
 11 12  1  0
 12 13  1  0
 13 14  1  0
 14 15  1  0
 15 16  1  0
 16 17  1  0
 17 18  1  0
 18 19  1  0
 19 20  2  0
 20 21  1  0
 21 22  2  0
 22 23  1  0
 23 24  1  0
 24 25  1  0
 23 26  2  0
 26 27  1  0
 27 28  2  0
 12 29  1  0
 29 30  1  0
  8  3  1  0
 27 16  1  0
 30  5  1  0
 26 19  1  0
M  END
>  <ChemBL_ID>  (71) 
CHEMBL2437385

>  <Ki>  (71) 
16.3

>  <database>  (71) 
SRSLDB

$$$$

     RDKit          2D

 26 29  0  0  0  0  0  0  0  0999 V2000
    1.0964    0.6233    0.0000 O   0  0  0  0  0  0  0  0  0  0  0  0
    1.6851   -0.7563    0.0000 C   0  0  0  0  0  0  0  0  0  0  0  0
    0.7847   -1.9560    0.0000 C   0  0  0  0  0  0  0  0  0  0  0  0
   -0.7045   -1.7760    0.0000 N   0  0  0  0  0  0  0  0  0  0  0  0
   -1.2932   -0.3964    0.0000 C   0  0  0  0  0  0  0  0  0  0  0  0
   -2.7824   -0.2164    0.0000 C   0  0  0  0  0  0  0  0  0  0  0  0
   -3.6828   -1.4160    0.0000 C   0  0  0  0  0  0  0  0  0  0  0  0
   -5.1720   -1.2361    0.0000 C   0  0  0  0  0  0  0  0  0  0  0  0
   -5.7607    0.1436    0.0000 C   0  0  0  0  0  0  0  0  0  0  0  0
   -4.8603    1.3432    0.0000 C   0  0  0  0  0  0  0  0  0  0  0  0
   -5.4490    2.7229    0.0000 C   0  0  0  0  0  0  0  0  0  0  0  0
   -6.9381    2.9029    0.0000 C   0  0  0  0  0  0  0  0  0  0  0  0
   -7.8386    1.7032    0.0000 C   0  0  0  0  0  0  0  0  0  0  0  0
   -7.2499    0.3236    0.0000 C   0  0  0  0  0  0  0  0  0  0  0  0
   -3.0941   -2.7957    0.0000 C   0  0  0  0  0  0  0  0  0  0  0  0
   -1.6050   -2.9757    0.0000 C   0  0  0  0  0  0  0  0  0  0  0  0
    3.1743   -0.9363    0.0000 C   0  0  0  0  0  0  0  0  0  0  0  0
    3.9040   -2.2469    0.0000 C   0  0  0  0  0  0  0  0  0  0  0  0
    5.3759   -1.9579    0.0000 N   0  0  0  0  0  0  0  0  0  0  0  0
    5.5559   -0.4687    0.0000 C   0  0  0  0  0  0  0  0  0  0  0  0
    6.7829    0.3940    0.0000 C   0  0  0  0  0  0  0  0  0  0  0  0
    6.6494    1.8880    0.0000 C   0  0  0  0  0  0  0  0  0  0  0  0
    7.8765    2.7507    0.0000 O   0  0  0  0  0  0  0  0  0  0  0  0
    5.2887    2.5194    0.0000 C   0  0  0  0  0  0  0  0  0  0  0  0
    4.0616    1.6567    0.0000 C   0  0  0  0  0  0  0  0  0  0  0  0
    4.1952    0.1627    0.0000 C   0  0  0  0  0  0  0  0  0  0  0  0
  1  2  2  0
  2  3  1  0
  3  4  1  0
  4  5  1  0
  5  6  1  0
  6  7  1  0
  7  8  1  0
  8  9  1  0
  9 10  2  0
 10 11  1  0
 11 12  2  0
 12 13  1  0
 13 14  2  0
  7 15  1  0
 15 16  1  0
  2 17  1  0
 17 18  2  0
 18 19  1  0
 19 20  1  0
 20 21  2  0
 21 22  1  0
 22 23  1  0
 22 24  2  0
 24 25  1  0
 25 26  2  0
 16  4  1  0
 26 17  1  0
 14  9  1  0
 26 20  1  0
M  END
>  <ChemBL_ID>  (72) 
CHEMBL1940482

>  <Ki>  (72) 
43.0

>  <database>  (72) 
SRSLDB

$$$$

     RDKit          2D

 33 37  0  0  0  0  0  0  0  0999 V2000
   -8.0606   -2.8236    0.0000 C   0  0  0  0  0  0  0  0  0  0  0  0
   -6.5967   -3.1509    0.0000 O   0  0  0  0  0  0  0  0  0  0  0  0
   -5.5813   -2.0468    0.0000 C   0  0  0  0  0  0  0  0  0  0  0  0
   -6.0298   -0.6154    0.0000 C   0  0  0  0  0  0  0  0  0  0  0  0
   -5.0144    0.4887    0.0000 C   0  0  0  0  0  0  0  0  0  0  0  0
   -3.5506    0.1614    0.0000 C   0  0  0  0  0  0  0  0  0  0  0  0
   -3.1021   -1.2700    0.0000 C   0  0  0  0  0  0  0  0  0  0  0  0
   -4.1175   -2.3741    0.0000 C   0  0  0  0  0  0  0  0  0  0  0  0
   -3.6690   -3.8055    0.0000 O   0  0  0  0  0  0  0  0  0  0  0  0
   -2.2051   -4.1328    0.0000 C   0  0  0  0  0  0  0  0  0  0  0  0
   -2.5352    1.2654    0.0000 C   0  0  0  0  0  0  0  0  0  0  0  0
   -2.9837    2.6968    0.0000 N   0  0  0  0  0  0  0  0  0  0  0  0
   -1.9683    3.8009    0.0000 C   0  0  0  0  0  0  0  0  0  0  0  0
   -0.5044    3.4736    0.0000 C   0  0  0  0  0  0  0  0  0  0  0  0
   -0.0559    2.0422    0.0000 C   0  0  0  0  0  0  0  0  0  0  0  0
    1.4079    1.7149    0.0000 C   0  0  0  0  0  0  0  0  0  0  0  0
    2.4233    2.8190    0.0000 N   0  0  0  0  0  0  0  0  0  0  0  0
    3.8871    2.4917    0.0000 C   0  0  0  0  0  0  0  0  0  0  0  0
    4.9025    3.5958    0.0000 O   0  0  0  0  0  0  0  0  0  0  0  0
    4.3356    1.0603    0.0000 C   0  0  0  0  0  0  0  0  0  0  0  0
    3.4412   -0.1439    0.0000 C   0  0  0  0  0  0  0  0  0  0  0  0
    4.3101   -1.3666    0.0000 C   0  0  0  0  0  0  0  0  0  0  0  0
    3.9827   -2.8305    0.0000 C   0  0  0  0  0  0  0  0  0  0  0  0
    5.0868   -3.8459    0.0000 C   0  0  0  0  0  0  0  0  0  0  0  0
    4.7595   -5.3097    0.0000 Br  0  0  0  0  0  0  0  0  0  0  0  0
    6.5182   -3.3974    0.0000 C   0  0  0  0  0  0  0  0  0  0  0  0
    6.8455   -1.9335    0.0000 C   0  0  0  0  0  0  0  0  0  0  0  0
    5.7414   -0.9181    0.0000 C   0  0  0  0  0  0  0  0  0  0  0  0
    5.7572    0.5818    0.0000 N   0  0  0  0  0  0  0  0  0  0  0  0
    1.9748    4.2504    0.0000 C   0  0  0  0  0  0  0  0  0  0  0  0
    0.5110    4.5777    0.0000 C   0  0  0  0  0  0  0  0  0  0  0  0
   -4.4475    3.0241    0.0000 C   0  0  0  0  0  0  0  0  0  0  0  0
   -5.4629    1.9201    0.0000 C   0  0  0  0  0  0  0  0  0  0  0  0
  1  2  1  0
  2  3  1  0
  3  4  2  0
  4  5  1  0
  5  6  2  0
  6  7  1  0
  7  8  2  0
  8  9  1  0
  9 10  1  0
  6 11  1  0
 11 12  1  0
 12 13  1  0
 13 14  1  0
 14 15  1  0
 15 16  1  0
 16 17  1  0
 17 18  1  0
 18 19  2  0
 18 20  1  0
 20 21  2  0
 21 22  1  0
 22 23  2  0
 23 24  1  0
 24 25  1  0
 24 26  2  0
 26 27  1  0
 27 28  2  0
 28 29  1  0
 17 30  1  0
 30 31  1  0
 12 32  1  0
 32 33  1  0
  8  3  1  0
 31 14  1  0
 33  5  1  0
 29 20  1  0
 28 22  1  0
M  END
>  <Ki>  (73) 
40.0

>  <database>  (73) 
SRSLDB

$$$$

     RDKit          2D

 26 29  0  0  0  0  0  0  0  0999 V2000
   -7.1271   -3.6747    0.0000 C   0  0  0  0  0  0  0  0  0  0  0  0
   -5.7370   -3.1110    0.0000 O   0  0  0  0  0  0  0  0  0  0  0  0
   -5.5301   -1.6254    0.0000 C   0  0  0  0  0  0  0  0  0  0  0  0
   -6.7133   -0.7034    0.0000 C   0  0  0  0  0  0  0  0  0  0  0  0
   -6.5064    0.7823    0.0000 C   0  0  0  0  0  0  0  0  0  0  0  0
   -5.1163    1.3459    0.0000 C   0  0  0  0  0  0  0  0  0  0  0  0
   -4.6051    2.7561    0.0000 N   0  0  0  0  0  0  0  0  0  0  0  0
   -3.1059    2.7056    0.0000 C   0  0  0  0  0  0  0  0  0  0  0  0
   -2.6906    1.2643    0.0000 C   0  0  0  0  0  0  0  0  0  0  0  0
   -1.2805    0.7530    0.0000 C   0  0  0  0  0  0  0  0  0  0  0  0
   -1.0181   -0.7239    0.0000 O   0  0  0  0  0  0  0  0  0  0  0  0
   -0.1326    1.7186    0.0000 C   0  0  0  0  0  0  0  0  0  0  0  0
    1.2776    1.2074    0.0000 N   0  0  0  0  0  0  0  0  0  0  0  0
    1.5399   -0.2695    0.0000 C   0  0  0  0  0  0  0  0  0  0  0  0
    2.9501   -0.7808    0.0000 C   0  0  0  0  0  0  0  0  0  0  0  0
    4.0979    0.1848    0.0000 C   0  0  0  0  0  0  0  0  0  0  0  0
    5.5081   -0.3264    0.0000 C   0  0  0  0  0  0  0  0  0  0  0  0
    5.7704   -1.8033    0.0000 C   0  0  0  0  0  0  0  0  0  0  0  0
    7.1806   -2.3146    0.0000 C   0  0  0  0  0  0  0  0  0  0  0  0
    8.3285   -1.3490    0.0000 C   0  0  0  0  0  0  0  0  0  0  0  0
    8.0662    0.1279    0.0000 C   0  0  0  0  0  0  0  0  0  0  0  0
    6.6560    0.6392    0.0000 C   0  0  0  0  0  0  0  0  0  0  0  0
    3.8356    1.6617    0.0000 C   0  0  0  0  0  0  0  0  0  0  0  0
    2.4254    2.1730    0.0000 C   0  0  0  0  0  0  0  0  0  0  0  0
   -3.9332    0.4239    0.0000 C   0  0  0  0  0  0  0  0  0  0  0  0
   -4.1401   -1.0617    0.0000 C   0  0  0  0  0  0  0  0  0  0  0  0
  1  2  1  0
  2  3  1  0
  3  4  2  0
  4  5  1  0
  5  6  2  0
  6  7  1  0
  7  8  1  0
  8  9  2  0
  9 10  1  0
 10 11  2  0
 10 12  1  0
 12 13  1  0
 13 14  1  0
 14 15  1  0
 15 16  1  0
 16 17  1  0
 17 18  2  0
 18 19  1  0
 19 20  2  0
 20 21  1  0
 21 22  2  0
 16 23  1  0
 23 24  1  0
  9 25  1  0
 25 26  2  0
 26  3  1  0
 25  6  1  0
 24 13  1  0
 22 17  1  0
M  END
>  <ChemBL_ID>  (74) 
CHEMBL3099034

>  <Ki>  (74) 
20.0

>  <database>  (74) 
SRSLDB

$$$$

     RDKit          2D

 30 32  0  0  0  0  0  0  0  0999 V2000
   -9.5532   -1.9324    0.0000 C   0  0  0  0  0  0  0  0  0  0  0  0
   -8.0609   -1.7801    0.0000 O   0  0  0  0  0  0  0  0  0  0  0  0
   -7.4467   -0.4117    0.0000 C   0  0  0  0  0  0  0  0  0  0  0  0
   -8.3247    0.8045    0.0000 C   0  0  0  0  0  0  0  0  0  0  0  0
   -9.8169    0.6523    0.0000 I   0  0  0  0  0  0  0  0  0  0  0  0
   -7.7104    2.1730    0.0000 C   0  0  0  0  0  0  0  0  0  0  0  0
   -6.2182    2.3253    0.0000 C   0  0  0  0  0  0  0  0  0  0  0  0
   -5.3402    1.1091    0.0000 C   0  0  0  0  0  0  0  0  0  0  0  0
   -3.8479    1.2613    0.0000 C   0  0  0  0  0  0  0  0  0  0  0  0
   -3.2337    2.6298    0.0000 O   0  0  0  0  0  0  0  0  0  0  0  0
   -2.9699    0.0452    0.0000 N   0  0  0  0  0  0  0  0  0  0  0  0
   -1.4777    0.1974    0.0000 C   0  0  0  0  0  0  0  0  0  0  0  0
   -0.5997   -1.0188    0.0000 C   0  0  0  0  0  0  0  0  0  0  0  0
    0.8926   -0.8665    0.0000 C   0  0  0  0  0  0  0  0  0  0  0  0
    1.7706   -2.0827    0.0000 C   0  0  0  0  0  0  0  0  0  0  0  0
    3.2628   -1.9304    0.0000 N   0  0  0  0  0  0  0  0  0  0  0  0
    4.1408   -3.1466    0.0000 C   0  0  0  0  0  0  0  0  0  0  0  0
    5.6331   -2.9943    0.0000 C   0  0  0  0  0  0  0  0  0  0  0  0
    6.2473   -1.6259    0.0000 C   0  0  0  0  0  0  0  0  0  0  0  0
    7.7396   -1.4736    0.0000 C   0  0  0  0  0  0  0  0  0  0  0  0
    8.3538   -0.1051    0.0000 C   0  0  0  0  0  0  0  0  0  0  0  0
    7.4758    1.1110    0.0000 C   0  0  0  0  0  0  0  0  0  0  0  0
    8.0901    2.4795    0.0000 N   0  0  0  0  0  4  0  0  0  0  0  0
    7.2121    3.6957    0.0000 O   0  0  0  0  0  0  0  0  0  0  0  0
    9.5823    2.6318    0.0000 O   0  0  0  0  0  1  0  0  0  0  0  0
    5.9836    0.9588    0.0000 C   0  0  0  0  0  0  0  0  0  0  0  0
    5.3693   -0.4097    0.0000 C   0  0  0  0  0  0  0  0  0  0  0  0
    3.8771   -0.5620    0.0000 C   0  0  0  0  0  0  0  0  0  0  0  0
   -5.9544   -0.2594    0.0000 C   0  0  0  0  0  0  0  0  0  0  0  0
   -5.0764   -1.4756    0.0000 O   0  0  0  0  0  0  0  0  0  0  0  0
  1  2  1  0
  2  3  1  0
  3  4  2  0
  4  5  1  0
  4  6  1  0
  6  7  2  0
  7  8  1  0
  8  9  1  0
  9 10  2  0
  9 11  1  0
 11 12  1  0
 12 13  1  0
 13 14  1  0
 14 15  1  0
 15 16  1  0
 16 17  1  0
 17 18  1  0
 18 19  1  0
 19 20  2  0
 20 21  1  0
 21 22  2  0
 22 23  1  0
 23 24  2  0
 23 25  1  0
 22 26  1  0
 26 27  2  0
 27 28  1  0
  8 29  2  0
 29 30  1  0
 29  3  1  0
 28 16  1  0
 27 19  1  0
M  CHG  2  23   1  25  -1
M  END
>  <ChemBL_ID>  (75) 
CHEMBL1927696

>  <Ki>  (75) 
866.7

>  <database>  (75) 
SRSLDB

$$$$

     RDKit          2D

 45 49  0  0  0  0  0  0  0  0999 V2000
   -1.0127   -5.4880    0.0000 C   0  0  0  0  0  0  0  0  0  0  0  0
   -1.8300   -4.2302    0.0000 O   0  0  0  0  0  0  0  0  0  0  0  0
   -3.3279   -4.3091    0.0000 C   0  0  0  0  0  0  0  0  0  0  0  0
   -4.0085   -5.6458    0.0000 C   0  0  0  0  0  0  0  0  0  0  0  0
   -5.5064   -5.7247    0.0000 C   0  0  0  0  0  0  0  0  0  0  0  0
   -6.3237   -4.4670    0.0000 C   0  0  0  0  0  0  0  0  0  0  0  0
   -7.8217   -4.5459    0.0000 C   0  0  0  0  0  0  0  0  0  0  0  0
   -5.6431   -3.1303    0.0000 C   0  0  0  0  0  0  0  0  0  0  0  0
   -4.1452   -3.0513    0.0000 C   0  0  0  0  0  0  0  0  0  0  0  0
   -3.4646   -1.7146    0.0000 N   0  0  0  0  0  0  0  0  0  0  0  0
   -4.2819   -0.4569    0.0000 C   0  0  0  0  0  0  0  0  0  0  0  0
   -5.7798   -0.5358    0.0000 O   0  0  0  0  0  0  0  0  0  0  0  0
   -3.6013    0.8798    0.0000 O   0  0  0  0  0  0  0  0  0  0  0  0
   -4.4186    2.1376    0.0000 C   0  0  0  0  0  0  0  0  0  0  0  0
   -3.7380    3.4743    0.0000 C   0  0  0  0  0  0  0  0  0  0  0  0
   -4.5553    4.7321    0.0000 C   0  0  0  0  0  0  0  0  0  0  0  0
   -5.3726    5.9899    0.0000 C   0  0  0  0  0  0  0  0  0  0  0  0
   -6.8705    5.9110    0.0000 C   0  0  0  0  0  0  0  0  0  0  0  0
   -7.5511    4.5743    0.0000 C   0  0  0  0  0  0  0  0  0  0  0  0
   -6.7338    3.3165    0.0000 C   0  0  0  0  0  0  0  0  0  0  0  0
   -5.9165    2.0587    0.0000 C   0  0  0  0  0  0  0  0  0  0  0  0
   -5.2359    3.3954    0.0000 N   0  0  0  0  0  0  0  0  0  0  0  0
   -4.4186    2.1376    0.0000 C   0  0  0  0  0  0  0  0  0  0  0  0
   -2.9207    2.2165    0.0000 C   0  0  0  0  0  0  0  0  0  0  0  0
   -2.1034    0.9588    0.0000 C   0  0  0  0  0  0  0  0  0  0  0  0
   -0.6054    1.0377    0.0000 C   0  0  0  0  0  0  0  0  0  0  0  0
    0.2119   -0.2201    0.0000 C   0  0  0  0  0  0  0  0  0  0  0  0
    1.7098   -0.1412    0.0000 C   0  0  0  0  0  0  0  0  0  0  0  0
    2.5271   -1.3990    0.0000 N   0  0  0  0  0  0  0  0  0  0  0  0
    4.0250   -1.3200    0.0000 S   0  0  0  0  0  0  0  0  0  0  0  0
    4.1039   -2.8180    0.0000 O   0  0  0  0  0  0  0  0  0  0  0  0
    3.9461    0.1779    0.0000 O   0  0  0  0  0  0  0  0  0  0  0  0
    5.5229   -1.2411    0.0000 C   0  0  0  0  0  0  0  0  0  0  0  0
    6.3403   -2.4989    0.0000 C   0  0  0  0  0  0  0  0  0  0  0  0
    7.8382   -2.4200    0.0000 C   0  0  0  0  0  0  0  0  0  0  0  0
    8.5188   -1.0833    0.0000 C   0  0  0  0  0  0  0  0  0  0  0  0
    7.7015    0.1745    0.0000 C   0  0  0  0  0  0  0  0  0  0  0  0
    8.3821    1.5112    0.0000 C   0  0  0  0  0  0  0  0  0  0  0  0
    9.8800    1.5901    0.0000 N   0  0  0  0  0  0  0  0  0  0  0  0
   10.5606    2.9268    0.0000 C   0  0  0  0  0  0  0  0  0  0  0  0
   10.6973    0.3323    0.0000 C   0  0  0  0  0  0  0  0  0  0  0  0
    7.5648    2.7690    0.0000 C   0  0  0  0  0  0  0  0  0  0  0  0
    6.0669    2.6901    0.0000 C   0  0  0  0  0  0  0  0  0  0  0  0
    5.3863    1.3534    0.0000 C   0  0  0  0  0  0  0  0  0  0  0  0
    6.2036    0.0956    0.0000 C   0  0  0  0  0  0  0  0  0  0  0  0
  1  2  1  0
  2  3  1  0
  3  4  2  0
  4  5  1  0
  5  6  2  0
  6  7  1  0
  6  8  1  0
  8  9  2  0
  9 10  1  0
 10 11  1  0
 11 12  2  0
 11 13  1  0
 13 14  1  0
 14 15  1  0
 15 16  1  0
 16 17  1  0
 17 18  1  0
 18 19  1  0
 19 20  1  0
 20 21  1  0
 20 22  1  0
 22 23  1  0
 23 24  1  0
 24 25  1  0
 25 26  1  0
 26 27  1  0
 27 28  1  0
 28 29  1  0
 29 30  1  0
 30 31  2  0
 30 32  2  0
 30 33  1  0
 33 34  2  0
 34 35  1  0
 35 36  2  0
 36 37  1  0
 37 38  2  0
 38 39  1  0
 39 40  1  0
 39 41  1  0
 38 42  1  0
 42 43  2  0
 43 44  1  0
 44 45  2  0
  9  3  1  0
 21 14  1  0
 45 33  1  0
 22 16  1  0
 45 37  1  0
M  END
>  <Ki>  (76) 
148.0

>  <database>  (76) 
SRSLDB

$$$$

     RDKit          2D

 26 29  0  0  0  0  0  0  0  0999 V2000
    5.3422   -3.6662    0.0000 O   0  0  0  0  0  0  0  0  0  0  0  0
    5.6027   -2.1890    0.0000 C   0  0  0  0  0  0  0  0  0  0  0  0
    6.9510   -1.5315    0.0000 O   0  0  0  0  0  0  0  0  0  0  0  0
    6.7423   -0.0461    0.0000 C   0  0  0  0  0  0  0  0  0  0  0  0
    7.7065    1.1029    0.0000 C   0  0  0  0  0  0  0  0  0  0  0  0
    7.1936    2.5125    0.0000 C   0  0  0  0  0  0  0  0  0  0  0  0
    5.7164    2.7730    0.0000 C   0  0  0  0  0  0  0  0  0  0  0  0
    4.7522    1.6240    0.0000 C   0  0  0  0  0  0  0  0  0  0  0  0
    5.2651    0.2145    0.0000 C   0  0  0  0  0  0  0  0  0  0  0  0
    4.5608   -1.1099    0.0000 N   0  0  0  0  0  0  0  0  0  0  0  0
    3.0754   -1.3186    0.0000 C   0  0  0  0  0  0  0  0  0  0  0  0
    2.1520   -0.1365    0.0000 C   0  0  0  0  0  0  0  0  0  0  0  0
    0.6666   -0.3452    0.0000 C   0  0  0  0  0  0  0  0  0  0  0  0
   -0.2569    0.8369    0.0000 C   0  0  0  0  0  0  0  0  0  0  0  0
   -1.7423    0.6283    0.0000 N   0  0  0  0  0  0  0  0  0  0  0  0
   -2.6657    1.8103    0.0000 C   0  0  0  0  0  0  0  0  0  0  0  0
   -4.1511    1.6017    0.0000 C   0  0  0  0  0  0  0  0  0  0  0  0
   -4.7131    0.2109    0.0000 N   0  0  0  0  0  0  0  0  0  0  0  0
   -6.1985    0.0023    0.0000 C   0  0  0  0  0  0  0  0  0  0  0  0
   -7.1219    1.1843    0.0000 C   0  0  0  0  0  0  0  0  0  0  0  0
   -8.6074    0.9757    0.0000 C   0  0  0  0  0  0  0  0  0  0  0  0
   -9.1694   -0.4151    0.0000 C   0  0  0  0  0  0  0  0  0  0  0  0
   -8.2459   -1.5971    0.0000 C   0  0  0  0  0  0  0  0  0  0  0  0
   -6.7605   -1.3885    0.0000 C   0  0  0  0  0  0  0  0  0  0  0  0
   -3.7897   -0.9712    0.0000 C   0  0  0  0  0  0  0  0  0  0  0  0
   -2.3043   -0.7625    0.0000 C   0  0  0  0  0  0  0  0  0  0  0  0
  1  2  2  0
  2  3  1  0
  3  4  1  0
  4  5  2  0
  5  6  1  0
  6  7  2  0
  7  8  1  0
  8  9  2  0
  9 10  1  0
 10 11  1  0
 11 12  1  0
 12 13  1  0
 13 14  1  0
 14 15  1  0
 15 16  1  0
 16 17  1  0
 17 18  1  0
 18 19  1  0
 19 20  1  0
 20 21  1  0
 21 22  1  0
 22 23  1  0
 23 24  1  0
 18 25  1  0
 25 26  1  0
 10  2  1  0
 26 15  1  0
  9  4  1  0
 24 19  1  0
M  END
>  <ChemBL_ID>  (77) 
CHEMBL271772

>  <Ki>  (77) 
1.83

>  <database>  (77) 
SRSLDB

$$$$

     RDKit          2D

 41 44  0  0  0  0  0  0  0  0999 V2000
  -14.9753    1.5517    0.0000 C   0  0  0  0  0  0  0  0  0  0  0  0
  -14.1594    0.2930    0.0000 O   0  0  0  0  0  0  0  0  0  0  0  0
  -12.6614    0.3702    0.0000 C   0  0  0  0  0  0  0  0  0  0  0  0
  -11.9792    1.7061    0.0000 C   0  0  0  0  0  0  0  0  0  0  0  0
  -10.4812    1.7833    0.0000 C   0  0  0  0  0  0  0  0  0  0  0  0
   -9.6654    0.5245    0.0000 C   0  0  0  0  0  0  0  0  0  0  0  0
  -10.3475   -0.8114    0.0000 C   0  0  0  0  0  0  0  0  0  0  0  0
  -11.8456   -0.8885    0.0000 C   0  0  0  0  0  0  0  0  0  0  0  0
  -12.5277   -2.2244    0.0000 O   0  0  0  0  0  0  0  0  0  0  0  0
  -11.7119   -3.4832    0.0000 C   0  0  0  0  0  0  0  0  0  0  0  0
   -8.1674    0.6017    0.0000 C   0  0  0  0  0  0  0  0  0  0  0  0
   -7.4852    1.9376    0.0000 N   0  0  0  0  0  0  0  0  0  0  0  0
   -5.9872    2.0148    0.0000 C   0  0  0  0  0  0  0  0  0  0  0  0
   -5.1713    0.7561    0.0000 C   0  0  0  0  0  0  0  0  0  0  0  0
   -3.6733    0.8332    0.0000 C   0  0  0  0  0  0  0  0  0  0  0  0
   -2.8575   -0.4255    0.0000 C   0  0  0  0  0  0  0  0  0  0  0  0
   -1.3595   -0.3483    0.0000 N   0  0  0  0  0  0  0  0  0  0  0  0
   -0.5436   -1.6070    0.0000 C   0  0  0  0  0  0  0  0  0  0  0  0
   -1.2258   -2.9429    0.0000 O   0  0  0  0  0  0  0  0  0  0  0  0
    0.9544   -1.5299    0.0000 C   0  0  0  0  0  0  0  0  0  0  0  0
    1.7702   -2.7886    0.0000 C   0  0  0  0  0  0  0  0  0  0  0  0
    3.2683   -2.7114    0.0000 C   0  0  0  0  0  0  0  0  0  0  0  0
    3.9504   -1.3755    0.0000 C   0  0  0  0  0  0  0  0  0  0  0  0
    5.4484   -1.2983    0.0000 C   0  0  0  0  0  0  0  0  0  0  0  0
    6.2665   -0.0410    0.0000 C   0  0  0  0  0  0  0  0  0  0  0  0
    7.7151   -0.4306    0.0000 N   0  0  0  0  0  0  0  0  0  0  0  0
    8.8816    0.5124    0.0000 C   0  0  0  0  0  0  0  0  0  0  0  0
   10.2815   -0.0264    0.0000 C   0  0  0  0  0  0  0  0  0  0  0  0
   11.4481    0.9165    0.0000 O   0  0  0  0  0  0  0  0  0  0  0  0
   12.8480    0.3778    0.0000 C   0  0  0  0  0  0  0  0  0  0  0  0
   14.0145    1.3207    0.0000 C   0  0  0  0  0  0  0  0  0  0  0  0
   15.4144    0.7819    0.0000 O   0  0  0  0  0  0  0  0  0  0  0  0
   16.5810    1.7249    0.0000 C   0  0  0  0  0  0  0  0  0  0  0  0
   17.9808    1.1861    0.0000 C   0  0  0  0  0  0  0  0  0  0  0  0
   19.1474    2.1290    0.0000 F   0  0  0  0  0  0  0  0  0  0  0  0
    7.7922   -1.9286    0.0000 N   0  0  0  0  0  0  0  0  0  0  0  0
    6.3914   -2.4649    0.0000 N   0  0  0  0  0  0  0  0  0  0  0  0
    3.1346   -0.1168    0.0000 C   0  0  0  0  0  0  0  0  0  0  0  0
    1.6366   -0.1939    0.0000 C   0  0  0  0  0  0  0  0  0  0  0  0
   -8.3010    3.1964    0.0000 C   0  0  0  0  0  0  0  0  0  0  0  0
   -9.7990    3.1192    0.0000 C   0  0  0  0  0  0  0  0  0  0  0  0
  1  2  1  0
  2  3  1  0
  3  4  2  0
  4  5  1  0
  5  6  2  0
  6  7  1  0
  7  8  2  0
  8  9  1  0
  9 10  1  0
  6 11  1  0
 11 12  1  0
 12 13  1  0
 13 14  1  0
 14 15  1  0
 15 16  1  0
 16 17  1  0
 17 18  1  0
 18 19  2  0
 18 20  1  0
 20 21  2  0
 21 22  1  0
 22 23  2  0
 23 24  1  0
 24 25  2  0
 25 26  1  0
 26 27  1  0
 27 28  1  0
 28 29  1  0
 29 30  1  0
 30 31  1  0
 31 32  1  0
 32 33  1  0
 33 34  1  0
 34 35  1  0
 26 36  1  0
 36 37  2  0
 23 38  1  0
 38 39  2  0
 12 40  1  0
 40 41  1  0
  8  3  1  0
 39 20  1  0
 41  5  1  0
 37 24  1  0
M  END
>  <ChemBL_ID>  (78) 
CHEMBL3262536

>  <Ki>  (78) 
212.0

>  <database>  (78) 
SRSLDB

$$$$

     RDKit          2D

 34 38  0  0  0  0  0  0  0  0999 V2000
  -10.8652   -0.1411    0.0000 C   0  0  0  0  0  0  0  0  0  0  0  0
   -9.8384   -1.2347    0.0000 O   0  0  0  0  0  0  0  0  0  0  0  0
   -8.3780   -0.8923    0.0000 C   0  0  0  0  0  0  0  0  0  0  0  0
   -7.9444    0.5437    0.0000 C   0  0  0  0  0  0  0  0  0  0  0  0
   -6.4840    0.8861    0.0000 C   0  0  0  0  0  0  0  0  0  0  0  0
   -5.4572   -0.2074    0.0000 C   0  0  0  0  0  0  0  0  0  0  0  0
   -5.8909   -1.6434    0.0000 C   0  0  0  0  0  0  0  0  0  0  0  0
   -7.3513   -1.9858    0.0000 C   0  0  0  0  0  0  0  0  0  0  0  0
   -7.7850   -3.4217    0.0000 O   0  0  0  0  0  0  0  0  0  0  0  0
   -6.7582   -4.5153    0.0000 C   0  0  0  0  0  0  0  0  0  0  0  0
   -3.9968    0.1350    0.0000 C   0  0  0  0  0  0  0  0  0  0  0  0
   -3.5632    1.5709    0.0000 N   0  0  0  0  0  0  0  0  0  0  0  0
   -2.1028    1.9133    0.0000 C   0  0  0  0  0  0  0  0  0  0  0  0
   -1.0761    0.8198    0.0000 C   0  0  0  0  0  0  0  0  0  0  0  0
    0.3843    1.1622    0.0000 C   0  0  0  0  0  0  0  0  0  0  0  0
    1.4111    0.0687    0.0000 C   0  0  0  0  0  0  0  0  0  0  0  0
    2.8715    0.4111    0.0000 C   0  0  0  0  0  0  0  0  0  0  0  0
    3.3051    1.8470    0.0000 N   0  0  0  0  0  0  0  0  0  0  0  0
    4.7655    2.1894    0.0000 C   0  0  0  0  0  0  0  0  0  0  0  0
    5.1992    3.6254    0.0000 O   0  0  0  0  0  0  0  0  0  0  0  0
    5.7923    1.0959    0.0000 C   0  0  0  0  0  0  0  0  0  0  0  0
    5.5111   -0.3775    0.0000 C   0  0  0  0  0  0  0  0  0  0  0  0
    6.8255   -1.1002    0.0000 C   0  0  0  0  0  0  0  0  0  0  0  0
    7.1679   -2.5606    0.0000 C   0  0  0  0  0  0  0  0  0  0  0  0
    8.6038   -2.9943    0.0000 C   0  0  0  0  0  0  0  0  0  0  0  0
    8.9462   -4.4547    0.0000 Br  0  0  0  0  0  0  0  0  0  0  0  0
    9.6974   -1.9676    0.0000 C   0  0  0  0  0  0  0  0  0  0  0  0
    9.3550   -0.5072    0.0000 C   0  0  0  0  0  0  0  0  0  0  0  0
    7.9190   -0.0735    0.0000 C   0  0  0  0  0  0  0  0  0  0  0  0
    7.2804    1.2838    0.0000 O   0  0  0  0  0  0  0  0  0  0  0  0
    2.2784    2.9406    0.0000 C   0  0  0  0  0  0  0  0  0  0  0  0
    0.8180    2.5981    0.0000 C   0  0  0  0  0  0  0  0  0  0  0  0
   -4.5899    2.6644    0.0000 C   0  0  0  0  0  0  0  0  0  0  0  0
   -6.0503    2.3220    0.0000 C   0  0  0  0  0  0  0  0  0  0  0  0
  1  2  1  0
  2  3  1  0
  3  4  2  0
  4  5  1  0
  5  6  2  0
  6  7  1  0
  7  8  2  0
  8  9  1  0
  9 10  1  0
  6 11  1  0
 11 12  1  0
 12 13  1  0
 13 14  1  0
 14 15  1  0
 15 16  1  0
 16 17  1  0
 17 18  1  0
 18 19  1  0
 19 20  2  0
 19 21  1  0
 21 22  2  0
 22 23  1  0
 23 24  2  0
 24 25  1  0
 25 26  1  0
 25 27  2  0
 27 28  1  0
 28 29  2  0
 29 30  1  0
 18 31  1  0
 31 32  1  0
 12 33  1  0
 33 34  1  0
  8  3  1  0
 32 15  1  0
 34  5  1  0
 30 21  1  0
 29 23  1  0
M  END
>  <Ki>  (79) 
4.9

>  <database>  (79) 
SRSLDB

$$$$

     RDKit          2D

 34 38  0  0  0  0  0  0  0  0999 V2000
    2.9990    1.5212    0.0000 O   0  0  0  0  0  0  0  0  0  0  0  0
    3.6173    0.1545    0.0000 C   0  0  0  0  0  0  0  0  0  0  0  0
    2.8751   -1.1490    0.0000 N   0  0  0  0  0  0  0  0  0  0  0  0
    1.3843   -1.3147    0.0000 C   0  0  0  0  0  0  0  0  0  0  0  0
    0.4954   -0.1065    0.0000 C   0  0  0  0  0  0  0  0  0  0  0  0
   -0.9954   -0.2723    0.0000 C   0  0  0  0  0  0  0  0  0  0  0  0
   -1.8844    0.9359    0.0000 C   0  0  0  0  0  0  0  0  0  0  0  0
   -3.3752    0.7702    0.0000 N   0  0  0  0  0  0  0  0  0  0  0  0
   -4.2642    1.9784    0.0000 C   0  0  0  0  0  0  0  0  0  0  0  0
   -5.7550    1.8126    0.0000 C   0  0  0  0  0  0  0  0  0  0  0  0
   -6.3568    0.4387    0.0000 N   0  0  0  0  0  0  0  0  0  0  0  0
   -7.8476    0.2729    0.0000 C   0  0  0  0  0  0  0  0  0  0  0  0
   -8.7366    1.4811    0.0000 C   0  0  0  0  0  0  0  0  0  0  0  0
  -10.2274    1.3154    0.0000 C   0  0  0  0  0  0  0  0  0  0  0  0
  -10.8293   -0.0586    0.0000 C   0  0  0  0  0  0  0  0  0  0  0  0
  -12.3201   -0.2243    0.0000 F   0  0  0  0  0  0  0  0  0  0  0  0
   -9.9403   -1.2668    0.0000 C   0  0  0  0  0  0  0  0  0  0  0  0
   -8.4495   -1.1010    0.0000 C   0  0  0  0  0  0  0  0  0  0  0  0
   -5.4679   -0.7695    0.0000 C   0  0  0  0  0  0  0  0  0  0  0  0
   -3.9771   -0.6038    0.0000 C   0  0  0  0  0  0  0  0  0  0  0  0
    3.8855   -2.2577    0.0000 C   0  0  0  0  0  0  0  0  0  0  0  0
    3.7377   -3.7503    0.0000 C   0  0  0  0  0  0  0  0  0  0  0  0
    4.9565   -4.6247    0.0000 C   0  0  0  0  0  0  0  0  0  0  0  0
    6.3231   -4.0064    0.0000 C   0  0  0  0  0  0  0  0  0  0  0  0
    6.4709   -2.5137    0.0000 C   0  0  0  0  0  0  0  0  0  0  0  0
    5.2521   -1.6393    0.0000 C   0  0  0  0  0  0  0  0  0  0  0  0
    5.0864   -0.1485    0.0000 N   0  0  0  0  0  0  0  0  0  0  0  0
    6.1951    0.8619    0.0000 C   0  0  0  0  0  0  0  0  0  0  0  0
    7.6244    0.4069    0.0000 C   0  0  0  0  0  0  0  0  0  0  0  0
    8.7331    1.4173    0.0000 C   0  0  0  0  0  0  0  0  0  0  0  0
    8.4124    2.8826    0.0000 C   0  0  0  0  0  0  0  0  0  0  0  0
    9.5211    3.8930    0.0000 F   0  0  0  0  0  0  0  0  0  0  0  0
    6.9830    3.3376    0.0000 C   0  0  0  0  0  0  0  0  0  0  0  0
    5.8744    2.3272    0.0000 C   0  0  0  0  0  0  0  0  0  0  0  0
  1  2  2  0
  2  3  1  0
  3  4  1  0
  4  5  1  0
  5  6  1  0
  6  7  1  0
  7  8  1  0
  8  9  1  0
  9 10  1  0
 10 11  1  0
 11 12  1  0
 12 13  2  0
 13 14  1  0
 14 15  2  0
 15 16  1  0
 15 17  1  0
 17 18  2  0
 11 19  1  0
 19 20  1  0
  3 21  1  0
 21 22  2  0
 22 23  1  0
 23 24  2  0
 24 25  1  0
 25 26  2  0
 26 27  1  0
 27 28  1  0
 28 29  2  0
 29 30  1  0
 30 31  2  0
 31 32  1  0
 31 33  1  0
 33 34  2  0
 27  2  1  0
 34 28  1  0
 20  8  1  0
 26 21  1  0
 18 12  1  0
M  END
>  <Ki>  (80) 
1.67

>  <database>  (80) 
SRSLDB

$$$$

     RDKit          2D

 35 38  0  0  0  0  0  0  0  0999 V2000
   -6.0088   -3.3160    0.0000 O   0  0  0  0  0  0  0  0  0  0  0  0
   -6.1584   -1.8235    0.0000 C   0  0  0  0  0  0  0  0  0  0  0  0
   -4.9407   -0.9476    0.0000 C   0  0  0  0  0  0  0  0  0  0  0  0
   -3.5733   -1.5643    0.0000 C   0  0  0  0  0  0  0  0  0  0  0  0
   -2.3556   -0.6884    0.0000 C   0  0  0  0  0  0  0  0  0  0  0  0
   -2.5052    0.8041    0.0000 C   0  0  0  0  0  0  0  0  0  0  0  0
   -1.2875    1.6799    0.0000 C   0  0  0  0  0  0  0  0  0  0  0  0
    0.0799    1.0633    0.0000 N   0  0  0  0  0  0  0  0  0  0  0  0
    1.2976    1.9391    0.0000 C   0  0  0  0  0  0  0  0  0  0  0  0
    2.6650    1.3225    0.0000 C   0  0  0  0  0  0  0  0  0  0  0  0
    3.8827    2.1983    0.0000 C   0  0  0  0  0  0  0  0  0  0  0  0
    5.2501    1.5817    0.0000 N   0  0  0  0  0  0  0  0  0  0  0  0
    5.3998    0.0891    0.0000 C   0  0  0  0  0  0  0  0  0  0  0  0
    6.7672   -0.5275    0.0000 C   0  0  0  0  0  0  0  0  0  0  0  0
    7.9849    0.3483    0.0000 N   0  0  0  0  0  0  0  0  0  0  0  0
    9.3523   -0.2683    0.0000 C   0  0  0  0  0  0  0  0  0  0  0  0
    9.5019   -1.7608    0.0000 C   0  0  0  0  0  0  0  0  0  0  0  0
   10.8693   -2.3775    0.0000 C   0  0  0  0  0  0  0  0  0  0  0  0
   12.0870   -1.5016    0.0000 C   0  0  0  0  0  0  0  0  0  0  0  0
   13.4544   -2.1183    0.0000 F   0  0  0  0  0  0  0  0  0  0  0  0
   11.9374   -0.0091    0.0000 C   0  0  0  0  0  0  0  0  0  0  0  0
   10.5700    0.6075    0.0000 C   0  0  0  0  0  0  0  0  0  0  0  0
    7.8352    1.8409    0.0000 C   0  0  0  0  0  0  0  0  0  0  0  0
    6.4679    2.4575    0.0000 C   0  0  0  0  0  0  0  0  0  0  0  0
   -3.8726    1.4207    0.0000 C   0  0  0  0  0  0  0  0  0  0  0  0
   -5.0903    0.5449    0.0000 C   0  0  0  0  0  0  0  0  0  0  0  0
   -7.5258   -1.2068    0.0000 C   0  0  0  0  0  0  0  0  0  0  0  0
   -7.6754    0.2857    0.0000 C   0  0  0  0  0  0  0  0  0  0  0  0
   -9.0428    0.9024    0.0000 C   0  0  0  0  0  0  0  0  0  0  0  0
  -10.2606    0.0265    0.0000 C   0  0  0  0  0  0  0  0  0  0  0  0
  -11.6279    0.6432    0.0000 N   0  0  0  0  0  4  0  0  0  0  0  0
  -12.8457   -0.2327    0.0000 O   0  0  0  0  0  0  0  0  0  0  0  0
  -11.7776    2.1357    0.0000 O   0  0  0  0  0  1  0  0  0  0  0  0
  -10.1109   -1.4660    0.0000 C   0  0  0  0  0  0  0  0  0  0  0  0
   -8.7435   -2.0827    0.0000 C   0  0  0  0  0  0  0  0  0  0  0  0
  1  2  2  0
  2  3  1  0
  3  4  2  0
  4  5  1  0
  5  6  2  0
  6  7  1  0
  7  8  1  0
  8  9  1  0
  9 10  1  0
 10 11  1  0
 11 12  1  0
 12 13  1  0
 13 14  1  0
 14 15  1  0
 15 16  1  0
 16 17  2  0
 17 18  1  0
 18 19  2  0
 19 20  1  0
 19 21  1  0
 21 22  2  0
 15 23  1  0
 23 24  1  0
  6 25  1  0
 25 26  2  0
  2 27  1  0
 27 28  2  0
 28 29  1  0
 29 30  2  0
 30 31  1  0
 31 32  2  0
 31 33  1  0
 30 34  1  0
 34 35  2  0
 26  3  1  0
 35 27  1  0
 24 12  1  0
 22 16  1  0
M  CHG  2  31   1  33  -1
M  END
>  <Ki>  (81) 
33.97

>  <database>  (81) 
SRSLDB

$$$$

     RDKit          2D

 30 33  0  0  0  0  0  0  0  0999 V2000
    9.3861   -3.2751    0.0000 C   0  0  0  0  0  0  0  0  0  0  0  0
    9.1856   -1.7885    0.0000 C   0  0  0  0  0  0  0  0  0  0  0  0
   10.3727   -0.8716    0.0000 O   0  0  0  0  0  0  0  0  0  0  0  0
    7.7979   -1.2189    0.0000 C   0  0  0  0  0  0  0  0  0  0  0  0
    6.6108   -2.1358    0.0000 C   0  0  0  0  0  0  0  0  0  0  0  0
    5.2232   -1.5662    0.0000 C   0  0  0  0  0  0  0  0  0  0  0  0
    5.0227   -0.0797    0.0000 C   0  0  0  0  0  0  0  0  0  0  0  0
    6.2098    0.8372    0.0000 C   0  0  0  0  0  0  0  0  0  0  0  0
    7.5974    0.2676    0.0000 C   0  0  0  0  0  0  0  0  0  0  0  0
    5.7046    2.2496    0.0000 O   0  0  0  0  0  0  0  0  0  0  0  0
    4.2052    2.2056    0.0000 C   0  0  0  0  0  0  0  0  0  0  0  0
    3.2883    3.3927    0.0000 O   0  0  0  0  0  0  0  0  0  0  0  0
    3.7838    0.7660    0.0000 N   0  0  0  0  0  0  0  0  0  0  0  0
    2.3714    0.2608    0.0000 C   0  0  0  0  0  0  0  0  0  0  0  0
    1.2277    1.2313    0.0000 C   0  0  0  0  0  0  0  0  0  0  0  0
   -0.1846    0.7261    0.0000 C   0  0  0  0  0  0  0  0  0  0  0  0
   -1.3283    1.6967    0.0000 C   0  0  0  0  0  0  0  0  0  0  0  0
   -2.7407    1.1915    0.0000 N   0  0  0  0  0  0  0  0  0  0  0  0
   -3.8844    2.1620    0.0000 C   0  0  0  0  0  0  0  0  0  0  0  0
   -5.2968    1.6568    0.0000 C   0  0  0  0  0  0  0  0  0  0  0  0
   -5.5654    0.1811    0.0000 N   0  0  0  0  0  0  0  0  0  0  0  0
   -6.9778   -0.3241    0.0000 C   0  0  0  0  0  0  0  0  0  0  0  0
   -8.1215    0.6464    0.0000 C   0  0  0  0  0  0  0  0  0  0  0  0
   -9.5339    0.1412    0.0000 C   0  0  0  0  0  0  0  0  0  0  0  0
   -9.8025   -1.3345    0.0000 C   0  0  0  0  0  0  0  0  0  0  0  0
  -11.2149   -1.8397    0.0000 F   0  0  0  0  0  0  0  0  0  0  0  0
   -8.6588   -2.3050    0.0000 C   0  0  0  0  0  0  0  0  0  0  0  0
   -7.2465   -1.7998    0.0000 C   0  0  0  0  0  0  0  0  0  0  0  0
   -4.4217   -0.7895    0.0000 C   0  0  0  0  0  0  0  0  0  0  0  0
   -3.0094   -0.2843    0.0000 C   0  0  0  0  0  0  0  0  0  0  0  0
  1  2  1  0
  2  3  1  0
  2  4  1  0
  4  5  2  0
  5  6  1  0
  6  7  2  0
  7  8  1  0
  8  9  2  0
  8 10  1  0
 10 11  1  0
 11 12  2  0
 11 13  1  0
 13 14  1  0
 14 15  1  0
 15 16  1  0
 16 17  1  0
 17 18  1  0
 18 19  1  0
 19 20  1  0
 20 21  1  0
 21 22  1  0
 22 23  2  0
 23 24  1  0
 24 25  2  0
 25 26  1  0
 25 27  1  0
 27 28  2  0
 21 29  1  0
 29 30  1  0
  9  4  1  0
 30 18  1  0
 13  7  1  0
 28 22  1  0
M  END
>  <Ki>  (82) 
8.68

>  <database>  (82) 
SRSLDB

$$$$

     RDKit          2D

 30 33  0  0  0  0  0  0  0  0999 V2000
  -10.8315   -0.8217    0.0000 C   0  0  0  0  0  0  0  0  0  0  0  0
   -9.5380   -1.5811    0.0000 O   0  0  0  0  0  0  0  0  0  0  0  0
   -8.2335   -0.8405    0.0000 C   0  0  0  0  0  0  0  0  0  0  0  0
   -8.2227    0.6594    0.0000 C   0  0  0  0  0  0  0  0  0  0  0  0
   -6.9183    1.4000    0.0000 C   0  0  0  0  0  0  0  0  0  0  0  0
   -5.6247    0.6407    0.0000 C   0  0  0  0  0  0  0  0  0  0  0  0
   -5.6355   -0.8593    0.0000 C   0  0  0  0  0  0  0  0  0  0  0  0
   -6.9399   -1.5999    0.0000 C   0  0  0  0  0  0  0  0  0  0  0  0
   -4.3419   -1.6187    0.0000 C   0  0  0  0  0  0  0  0  0  0  0  0
   -3.0375   -0.8781    0.0000 C   0  0  0  0  0  0  0  0  0  0  0  0
   -3.0267    0.6219    0.0000 N   0  0  0  0  0  0  0  0  0  0  0  0
   -1.7222    1.3625    0.0000 C   0  0  0  0  0  0  0  0  0  0  0  0
   -0.4287    0.6031    0.0000 C   0  0  0  0  0  0  0  0  0  0  0  0
    0.8758    1.3437    0.0000 C   0  0  0  0  0  0  0  0  0  0  0  0
    2.1693    0.5843    0.0000 N   0  0  0  0  0  0  0  0  0  0  0  0
    2.1585   -0.9156    0.0000 C   0  0  0  0  0  0  0  0  0  0  0  0
    3.4521   -1.6750    0.0000 C   0  0  0  0  0  0  0  0  0  0  0  0
    4.7565   -0.9344    0.0000 C   0  0  0  0  0  0  0  0  0  0  0  0
    6.0501   -1.6938    0.0000 C   0  0  0  0  0  0  0  0  0  0  0  0
    7.3545   -0.9532    0.0000 C   0  0  0  0  0  0  0  0  0  0  0  0
    8.6481   -1.7125    0.0000 O   0  0  0  0  0  0  0  0  0  0  0  0
    8.6373   -3.2125    0.0000 C   0  0  0  0  0  0  0  0  0  0  0  0
    7.3654    0.5468    0.0000 C   0  0  0  0  0  0  0  0  0  0  0  0
    8.6698    1.2874    0.0000 O   0  0  0  0  0  0  0  0  0  0  0  0
    8.6806    2.7873    0.0000 C   0  0  0  0  0  0  0  0  0  0  0  0
    6.0718    1.3062    0.0000 C   0  0  0  0  0  0  0  0  0  0  0  0
    4.7674    0.5656    0.0000 C   0  0  0  0  0  0  0  0  0  0  0  0
    3.4738    1.3249    0.0000 C   0  0  0  0  0  0  0  0  0  0  0  0
   -4.3203    1.3813    0.0000 C   0  0  0  0  0  0  0  0  0  0  0  0
   -4.3094    2.8812    0.0000 O   0  0  0  0  0  0  0  0  0  0  0  0
  1  2  1  0
  2  3  1  0
  3  4  2  0
  4  5  1  0
  5  6  2  0
  6  7  1  0
  7  8  2  0
  7  9  1  0
  9 10  1  0
 10 11  1  0
 11 12  1  0
 12 13  1  0
 13 14  1  0
 14 15  1  0
 15 16  1  0
 16 17  1  0
 17 18  1  0
 18 19  2  0
 19 20  1  0
 20 21  1  0
 21 22  1  0
 20 23  2  0
 23 24  1  0
 24 25  1  0
 23 26  1  0
 26 27  2  0
 27 28  1  0
 11 29  1  0
 29 30  2  0
  8  3  1  0
 28 15  1  0
 29  6  1  0
 27 18  1  0
M  END
>  <ChemBL_ID>  (83) 
CHEMBL2437384

>  <Ki>  (83) 
5.74

>  <database>  (83) 
SRSLDB

$$$$

     RDKit          2D

 32 35  0  0  0  0  0  0  0  0999 V2000
  -11.0174   -0.9716    0.0000 C   0  0  0  0  0  0  0  0  0  0  0  0
   -9.8080   -1.8590    0.0000 O   0  0  0  0  0  0  0  0  0  0  0  0
   -8.4349   -1.2553    0.0000 C   0  0  0  0  0  0  0  0  0  0  0  0
   -8.2711    0.2358    0.0000 C   0  0  0  0  0  0  0  0  0  0  0  0
   -6.8980    0.8395    0.0000 C   0  0  0  0  0  0  0  0  0  0  0  0
   -5.6886   -0.0478    0.0000 C   0  0  0  0  0  0  0  0  0  0  0  0
   -5.8523   -1.5389    0.0000 C   0  0  0  0  0  0  0  0  0  0  0  0
   -7.2255   -2.1426    0.0000 C   0  0  0  0  0  0  0  0  0  0  0  0
   -7.3893   -3.6336    0.0000 O   0  0  0  0  0  0  0  0  0  0  0  0
   -6.1799   -4.5210    0.0000 C   0  0  0  0  0  0  0  0  0  0  0  0
   -4.3154    0.5559    0.0000 C   0  0  0  0  0  0  0  0  0  0  0  0
   -4.1517    2.0469    0.0000 N   0  0  0  0  0  0  0  0  0  0  0  0
   -2.7785    2.6506    0.0000 C   0  0  0  0  0  0  0  0  0  0  0  0
   -1.5691    1.7633    0.0000 C   0  0  0  0  0  0  0  0  0  0  0  0
   -0.1960    2.3670    0.0000 C   0  0  0  0  0  0  0  0  0  0  0  0
    1.0134    1.4796    0.0000 C   0  0  0  0  0  0  0  0  0  0  0  0
    2.3866    2.0833    0.0000 C   0  0  0  0  0  0  0  0  0  0  0  0
    3.5960    1.1960    0.0000 N   0  0  0  0  0  0  0  0  0  0  0  0
    4.9691    1.7997    0.0000 C   0  0  0  0  0  0  0  0  0  0  0  0
    5.1329    3.2907    0.0000 O   0  0  0  0  0  0  0  0  0  0  0  0
    6.1785    0.9124    0.0000 C   0  0  0  0  0  0  0  0  0  0  0  0
    6.1715   -0.5876    0.0000 C   0  0  0  0  0  0  0  0  0  0  0  0
    7.5959   -1.0578    0.0000 C   0  0  0  0  0  0  0  0  0  0  0  0
    8.1996   -2.4310    0.0000 C   0  0  0  0  0  0  0  0  0  0  0  0
    9.6906   -2.5947    0.0000 C   0  0  0  0  0  0  0  0  0  0  0  0
   10.2943   -3.9679    0.0000 Br  0  0  0  0  0  0  0  0  0  0  0  0
   10.5780   -1.3853    0.0000 C   0  0  0  0  0  0  0  0  0  0  0  0
    9.9743   -0.0122    0.0000 C   0  0  0  0  0  0  0  0  0  0  0  0
    8.4832    0.1516    0.0000 C   0  0  0  0  0  0  0  0  0  0  0  0
    7.6072    1.3692    0.0000 O   0  0  0  0  0  0  0  0  0  0  0  0
   -5.3611    2.9342    0.0000 C   0  0  0  0  0  0  0  0  0  0  0  0
   -6.7342    2.3305    0.0000 C   0  0  0  0  0  0  0  0  0  0  0  0
  1  2  1  0
  2  3  1  0
  3  4  2  0
  4  5  1  0
  5  6  2  0
  6  7  1  0
  7  8  2  0
  8  9  1  0
  9 10  1  0
  6 11  1  0
 11 12  1  0
 12 13  1  0
 13 14  1  0
 14 15  1  0
 15 16  1  0
 16 17  1  0
 17 18  1  0
 18 19  1  0
 19 20  2  0
 19 21  1  0
 21 22  2  0
 22 23  1  0
 23 24  2  0
 24 25  1  0
 25 26  1  0
 25 27  2  0
 27 28  1  0
 28 29  2  0
 29 30  1  0
 12 31  1  0
 31 32  1  0
  8  3  1  0
 30 21  1  0
 32  5  1  0
 29 23  1  0
M  END
>  <Ki>  (84) 
6.2

>  <database>  (84) 
SRSLDB

$$$$

     RDKit          2D

 27 30  0  0  0  0  0  0  0  0999 V2000
    5.7097   -3.6854    0.0000 O   0  0  0  0  0  0  0  0  0  0  0  0
    5.9812   -2.2102    0.0000 C   0  0  0  0  0  0  0  0  0  0  0  0
    7.3342   -1.5627    0.0000 N   0  0  0  0  0  0  0  0  0  0  0  0
    7.1365   -0.0758    0.0000 C   0  0  0  0  0  0  0  0  0  0  0  0
    8.1093    1.0661    0.0000 C   0  0  0  0  0  0  0  0  0  0  0  0
    7.6068    2.4794    0.0000 C   0  0  0  0  0  0  0  0  0  0  0  0
    6.1315    2.7509    0.0000 C   0  0  0  0  0  0  0  0  0  0  0  0
    5.1588    1.6090    0.0000 C   0  0  0  0  0  0  0  0  0  0  0  0
    5.6613    0.1957    0.0000 C   0  0  0  0  0  0  0  0  0  0  0  0
    4.9473   -1.1234    0.0000 N   0  0  0  0  0  0  0  0  0  0  0  0
    3.4603   -1.3211    0.0000 C   0  0  0  0  0  0  0  0  0  0  0  0
    2.5457   -0.1322    0.0000 C   0  0  0  0  0  0  0  0  0  0  0  0
    1.0588   -0.3299    0.0000 C   0  0  0  0  0  0  0  0  0  0  0  0
    0.1441    0.8590    0.0000 C   0  0  0  0  0  0  0  0  0  0  0  0
   -1.3428    0.6613    0.0000 N   0  0  0  0  0  0  0  0  0  0  0  0
   -2.2575    1.8502    0.0000 C   0  0  0  0  0  0  0  0  0  0  0  0
   -3.7444    1.6525    0.0000 C   0  0  0  0  0  0  0  0  0  0  0  0
   -4.3166    0.2660    0.0000 N   0  0  0  0  0  0  0  0  0  0  0  0
   -5.8036    0.0683    0.0000 C   0  0  0  0  0  0  0  0  0  0  0  0
   -6.7182    1.2572    0.0000 C   0  0  0  0  0  0  0  0  0  0  0  0
   -8.2051    1.0595    0.0000 C   0  0  0  0  0  0  0  0  0  0  0  0
   -8.7774   -0.3271    0.0000 C   0  0  0  0  0  0  0  0  0  0  0  0
  -10.2643   -0.5247    0.0000 F   0  0  0  0  0  0  0  0  0  0  0  0
   -7.8627   -1.5159    0.0000 C   0  0  0  0  0  0  0  0  0  0  0  0
   -6.3758   -1.3183    0.0000 C   0  0  0  0  0  0  0  0  0  0  0  0
   -3.4020   -0.9229    0.0000 C   0  0  0  0  0  0  0  0  0  0  0  0
   -1.9151   -0.7252    0.0000 C   0  0  0  0  0  0  0  0  0  0  0  0
  1  2  2  0
  2  3  1  0
  3  4  1  0
  4  5  2  0
  5  6  1  0
  6  7  2  0
  7  8  1  0
  8  9  2  0
  9 10  1  0
 10 11  1  0
 11 12  1  0
 12 13  1  0
 13 14  1  0
 14 15  1  0
 15 16  1  0
 16 17  1  0
 17 18  1  0
 18 19  1  0
 19 20  2  0
 20 21  1  0
 21 22  2  0
 22 23  1  0
 22 24  1  0
 24 25  2  0
 18 26  1  0
 26 27  1  0
 10  2  1  0
 27 15  1  0
  9  4  1  0
 25 19  1  0
M  END
>  <Ki>  (85) 
29.6

>  <database>  (85) 
SRSLDB

$$$$

     RDKit          2D

 33 37  0  0  0  0  0  0  0  0999 V2000
   -8.0606   -2.8236    0.0000 C   0  0  0  0  0  0  0  0  0  0  0  0
   -6.5967   -3.1509    0.0000 O   0  0  0  0  0  0  0  0  0  0  0  0
   -5.5813   -2.0468    0.0000 C   0  0  0  0  0  0  0  0  0  0  0  0
   -6.0298   -0.6154    0.0000 C   0  0  0  0  0  0  0  0  0  0  0  0
   -5.0144    0.4887    0.0000 C   0  0  0  0  0  0  0  0  0  0  0  0
   -3.5506    0.1614    0.0000 C   0  0  0  0  0  0  0  0  0  0  0  0
   -3.1021   -1.2700    0.0000 C   0  0  0  0  0  0  0  0  0  0  0  0
   -4.1175   -2.3741    0.0000 C   0  0  0  0  0  0  0  0  0  0  0  0
   -3.6690   -3.8055    0.0000 O   0  0  0  0  0  0  0  0  0  0  0  0
   -2.2051   -4.1328    0.0000 C   0  0  0  0  0  0  0  0  0  0  0  0
   -2.5352    1.2654    0.0000 C   0  0  0  0  0  0  0  0  0  0  0  0
   -2.9837    2.6968    0.0000 N   0  0  0  0  0  0  0  0  0  0  0  0
   -1.9683    3.8009    0.0000 C   0  0  0  0  0  0  0  0  0  0  0  0
   -0.5044    3.4736    0.0000 C   0  0  0  0  0  0  0  0  0  0  0  0
   -0.0559    2.0422    0.0000 C   0  0  0  0  0  0  0  0  0  0  0  0
    1.4079    1.7149    0.0000 C   0  0  0  0  0  0  0  0  0  0  0  0
    2.4233    2.8190    0.0000 N   0  0  0  0  0  0  0  0  0  0  0  0
    3.8871    2.4917    0.0000 C   0  0  0  0  0  0  0  0  0  0  0  0
    4.9025    3.5958    0.0000 O   0  0  0  0  0  0  0  0  0  0  0  0
    4.3356    1.0603    0.0000 C   0  0  0  0  0  0  0  0  0  0  0  0
    3.4412   -0.1439    0.0000 C   0  0  0  0  0  0  0  0  0  0  0  0
    4.3101   -1.3666    0.0000 C   0  0  0  0  0  0  0  0  0  0  0  0
    3.9827   -2.8305    0.0000 C   0  0  0  0  0  0  0  0  0  0  0  0
    5.0868   -3.8459    0.0000 C   0  0  0  0  0  0  0  0  0  0  0  0
    4.7595   -5.3097    0.0000 I   0  0  0  0  0  0  0  0  0  0  0  0
    6.5182   -3.3974    0.0000 C   0  0  0  0  0  0  0  0  0  0  0  0
    6.8455   -1.9335    0.0000 C   0  0  0  0  0  0  0  0  0  0  0  0
    5.7414   -0.9181    0.0000 C   0  0  0  0  0  0  0  0  0  0  0  0
    5.7572    0.5818    0.0000 O   0  0  0  0  0  0  0  0  0  0  0  0
    1.9748    4.2504    0.0000 C   0  0  0  0  0  0  0  0  0  0  0  0
    0.5110    4.5777    0.0000 C   0  0  0  0  0  0  0  0  0  0  0  0
   -4.4475    3.0241    0.0000 C   0  0  0  0  0  0  0  0  0  0  0  0
   -5.4629    1.9201    0.0000 C   0  0  0  0  0  0  0  0  0  0  0  0
  1  2  1  0
  2  3  1  0
  3  4  2  0
  4  5  1  0
  5  6  2  0
  6  7  1  0
  7  8  2  0
  8  9  1  0
  9 10  1  0
  6 11  1  0
 11 12  1  0
 12 13  1  0
 13 14  1  0
 14 15  1  0
 15 16  1  0
 16 17  1  0
 17 18  1  0
 18 19  2  0
 18 20  1  0
 20 21  2  0
 21 22  1  0
 22 23  2  0
 23 24  1  0
 24 25  1  0
 24 26  2  0
 26 27  1  0
 27 28  2  0
 28 29  1  0
 17 30  1  0
 30 31  1  0
 12 32  1  0
 32 33  1  0
  8  3  1  0
 31 14  1  0
 33  5  1  0
 29 20  1  0
 28 22  1  0
M  END
>  <Ki>  (86) 
11.0

>  <database>  (86) 
SRSLDB

$$$$

     RDKit          2D

 26 29  0  0  0  0  0  0  0  0999 V2000
    1.2001    0.5768    0.0000 O   0  0  0  0  0  0  0  0  0  0  0  0
    1.7912   -0.8018    0.0000 C   0  0  0  0  0  0  0  0  0  0  0  0
    0.8928   -2.0030    0.0000 C   0  0  0  0  0  0  0  0  0  0  0  0
   -0.5967   -1.8256    0.0000 N   0  0  0  0  0  0  0  0  0  0  0  0
   -1.1878   -0.4470    0.0000 C   0  0  0  0  0  0  0  0  0  0  0  0
   -2.6773   -0.2695    0.0000 C   0  0  0  0  0  0  0  0  0  0  0  0
   -3.5756   -1.4708    0.0000 C   0  0  0  0  0  0  0  0  0  0  0  0
   -5.0651   -1.2933    0.0000 C   0  0  0  0  0  0  0  0  0  0  0  0
   -5.6562    0.0853    0.0000 C   0  0  0  0  0  0  0  0  0  0  0  0
   -4.7578    1.2865    0.0000 C   0  0  0  0  0  0  0  0  0  0  0  0
   -5.3489    2.6651    0.0000 C   0  0  0  0  0  0  0  0  0  0  0  0
   -6.8384    2.8426    0.0000 C   0  0  0  0  0  0  0  0  0  0  0  0
   -7.7367    1.6414    0.0000 C   0  0  0  0  0  0  0  0  0  0  0  0
   -7.1457    0.2627    0.0000 C   0  0  0  0  0  0  0  0  0  0  0  0
   -2.9846   -2.8494    0.0000 C   0  0  0  0  0  0  0  0  0  0  0  0
   -1.4951   -3.0268    0.0000 C   0  0  0  0  0  0  0  0  0  0  0  0
    3.2806   -0.9792    0.0000 C   0  0  0  0  0  0  0  0  0  0  0  0
    4.0126   -2.2885    0.0000 C   0  0  0  0  0  0  0  0  0  0  0  0
    5.4840   -1.9970    0.0000 N   0  0  0  0  0  0  0  0  0  0  0  0
    5.6614   -0.5075    0.0000 C   0  0  0  0  0  0  0  0  0  0  0  0
    6.8870    0.3573    0.0000 C   0  0  0  0  0  0  0  0  0  0  0  0
    6.7509    1.8511    0.0000 C   0  0  0  0  0  0  0  0  0  0  0  0
    5.3891    2.4801    0.0000 C   0  0  0  0  0  0  0  0  0  0  0  0
    5.2530    3.9739    0.0000 O   0  0  0  0  0  0  0  0  0  0  0  0
    4.1635    1.6153    0.0000 C   0  0  0  0  0  0  0  0  0  0  0  0
    4.2997    0.1215    0.0000 C   0  0  0  0  0  0  0  0  0  0  0  0
  1  2  2  0
  2  3  1  0
  3  4  1  0
  4  5  1  0
  5  6  1  0
  6  7  1  0
  7  8  1  0
  8  9  1  0
  9 10  2  0
 10 11  1  0
 11 12  2  0
 12 13  1  0
 13 14  2  0
  7 15  1  0
 15 16  1  0
  2 17  1  0
 17 18  2  0
 18 19  1  0
 19 20  1  0
 20 21  2  0
 21 22  1  0
 22 23  2  0
 23 24  1  0
 23 25  1  0
 25 26  2  0
 16  4  1  0
 26 17  1  0
 14  9  1  0
 26 20  1  0
M  END
>  <ChemBL_ID>  (87) 
CHEMBL518480

>  <Ki>  (87) 
76.5

>  <database>  (87) 
SRSLDB

$$$$

     RDKit          2D

 29 32  0  0  0  0  0  0  0  0999 V2000
    7.8293    2.4635    0.0000 C   0  0  0  0  0  0  0  0  0  0  0  0
    6.8601    1.3186    0.0000 N   0  0  0  0  0  0  0  0  0  0  0  0
    5.3643    1.4297    0.0000 C   0  0  0  0  0  0  0  0  0  0  0  0
    4.5749    2.7052    0.0000 O   0  0  0  0  0  0  0  0  0  0  0  0
    4.7964    0.0414    0.0000 N   0  0  0  0  0  0  0  0  0  0  0  0
    3.3394   -0.3152    0.0000 C   0  0  0  0  0  0  0  0  0  0  0  0
    2.3020    0.7682    0.0000 C   0  0  0  0  0  0  0  0  0  0  0  0
    0.8450    0.4116    0.0000 C   0  0  0  0  0  0  0  0  0  0  0  0
   -0.1923    1.4951    0.0000 C   0  0  0  0  0  0  0  0  0  0  0  0
   -1.6493    1.1385    0.0000 N   0  0  0  0  0  0  0  0  0  0  0  0
   -2.6866    2.2220    0.0000 C   0  0  0  0  0  0  0  0  0  0  0  0
   -4.1436    1.8654    0.0000 C   0  0  0  0  0  0  0  0  0  0  0  0
   -4.5633    0.4253    0.0000 N   0  0  0  0  0  0  0  0  0  0  0  0
   -6.0203    0.0687    0.0000 C   0  0  0  0  0  0  0  0  0  0  0  0
   -7.0576    1.1522    0.0000 C   0  0  0  0  0  0  0  0  0  0  0  0
   -8.5146    0.7956    0.0000 C   0  0  0  0  0  0  0  0  0  0  0  0
   -8.9342   -0.6445    0.0000 C   0  0  0  0  0  0  0  0  0  0  0  0
  -10.3912   -1.0011    0.0000 F   0  0  0  0  0  0  0  0  0  0  0  0
   -7.8969   -1.7280    0.0000 C   0  0  0  0  0  0  0  0  0  0  0  0
   -6.4399   -1.3714    0.0000 C   0  0  0  0  0  0  0  0  0  0  0  0
   -5.4026   -2.4549    0.0000 N   0  0  0  0  0  0  0  0  0  0  0  0
   -3.5259   -0.6582    0.0000 C   0  0  0  0  0  0  0  0  0  0  0  0
   -2.0689   -0.3016    0.0000 C   0  0  0  0  0  0  0  0  0  0  0  0
    5.9413   -0.9278    0.0000 C   0  0  0  0  0  0  0  0  0  0  0  0
    5.9872   -2.4271    0.0000 C   0  0  0  0  0  0  0  0  0  0  0  0
    7.3085   -3.1370    0.0000 C   0  0  0  0  0  0  0  0  0  0  0  0
    8.5840   -2.3476    0.0000 C   0  0  0  0  0  0  0  0  0  0  0  0
    8.5381   -0.8483    0.0000 C   0  0  0  0  0  0  0  0  0  0  0  0
    7.2168   -0.1384    0.0000 C   0  0  0  0  0  0  0  0  0  0  0  0
  1  2  1  0
  2  3  1  0
  3  4  2  0
  3  5  1  0
  5  6  1  0
  6  7  1  0
  7  8  1  0
  8  9  1  0
  9 10  1  0
 10 11  1  0
 11 12  1  0
 12 13  1  0
 13 14  1  0
 14 15  2  0
 15 16  1  0
 16 17  2  0
 17 18  1  0
 17 19  1  0
 19 20  2  0
 20 21  1  0
 13 22  1  0
 22 23  1  0
  5 24  1  0
 24 25  2  0
 25 26  1  0
 26 27  2  0
 27 28  1  0
 28 29  2  0
 29  2  1  0
 23 10  1  0
 29 24  1  0
 20 14  1  0
M  END
>  <Ki>  (88) 
3.59

>  <database>  (88) 
SRSLDB

$$$$

     RDKit          2D

 32 35  0  0  0  0  0  0  0  0999 V2000
   -5.0772   -4.4033    0.0000 C   0  0  0  0  0  0  0  0  0  0  0  0
   -3.7846   -3.6422    0.0000 O   0  0  0  0  0  0  0  0  0  0  0  0
   -3.7976   -2.1422    0.0000 C   0  0  0  0  0  0  0  0  0  0  0  0
   -5.1030   -1.4035    0.0000 C   0  0  0  0  0  0  0  0  0  0  0  0
   -5.1160    0.0965    0.0000 C   0  0  0  0  0  0  0  0  0  0  0  0
   -3.8235    0.8577    0.0000 C   0  0  0  0  0  0  0  0  0  0  0  0
   -3.8364    2.3576    0.0000 C   0  0  0  0  0  0  0  0  0  0  0  0
   -2.5180    0.1189    0.0000 C   0  0  0  0  0  0  0  0  0  0  0  0
   -2.5051   -1.3810    0.0000 C   0  0  0  0  0  0  0  0  0  0  0  0
   -1.1996   -2.1198    0.0000 N   0  0  0  0  0  0  0  0  0  0  0  0
    0.0929   -1.3586    0.0000 C   0  0  0  0  0  0  0  0  0  0  0  0
    0.0800    0.1413    0.0000 O   0  0  0  0  0  0  0  0  0  0  0  0
    1.3984   -2.0974    0.0000 O   0  0  0  0  0  0  0  0  0  0  0  0
    2.6909   -1.3362    0.0000 C   0  0  0  0  0  0  0  0  0  0  0  0
    3.9964   -2.0750    0.0000 C   0  0  0  0  0  0  0  0  0  0  0  0
    5.2889   -1.3138    0.0000 C   0  0  0  0  0  0  0  0  0  0  0  0
    6.5814   -0.5526    0.0000 C   0  0  0  0  0  0  0  0  0  0  0  0
    6.5685    0.9473    0.0000 C   0  0  0  0  0  0  0  0  0  0  0  0
    5.2630    1.6861    0.0000 C   0  0  0  0  0  0  0  0  0  0  0  0
    3.9705    0.9249    0.0000 C   0  0  0  0  0  0  0  0  0  0  0  0
    2.6780    0.1637    0.0000 C   0  0  0  0  0  0  0  0  0  0  0  0
    3.9834   -0.5750    0.0000 N   0  0  0  0  0  0  0  0  0  0  0  0
    2.6909   -1.3362    0.0000 C   0  0  0  0  0  0  0  0  0  0  0  0
    1.3854   -0.5974    0.0000 C   0  0  0  0  0  0  0  0  0  0  0  0
    1.3725    0.9025    0.0000 C   0  0  0  0  0  0  0  0  0  0  0  0
    0.0670    1.6413    0.0000 C   0  0  0  0  0  0  0  0  0  0  0  0
    0.0541    3.1412    0.0000 C   0  0  0  0  0  0  0  0  0  0  0  0
   -1.2514    3.8800    0.0000 C   0  0  0  0  0  0  0  0  0  0  0  0
   -2.5439    3.1188    0.0000 C   0  0  0  0  0  0  0  0  0  0  0  0
   -3.8493    3.8576    0.0000 N   0  0  0  0  0  0  0  0  0  0  0  0
   -2.5309    1.6188    0.0000 C   0  0  0  0  0  0  0  0  0  0  0  0
   -1.2255    0.8801    0.0000 C   0  0  0  0  0  0  0  0  0  0  0  0
  1  2  1  0
  2  3  1  0
  3  4  2  0
  4  5  1  0
  5  6  2  0
  6  7  1  0
  6  8  1  0
  8  9  2  0
  9 10  1  0
 10 11  1  0
 11 12  2  0
 11 13  1  0
 13 14  1  0
 14 15  1  0
 15 16  1  0
 16 17  1  0
 17 18  1  0
 18 19  1  0
 19 20  1  0
 20 21  1  0
 20 22  1  0
 22 23  1  0
 23 24  1  0
 24 25  2  0
 25 26  1  0
 26 27  2  0
 27 28  1  0
 28 29  2  0
 29 30  1  0
 29 31  1  0
 31 32  2  0
  9  3  1  0
 21 14  1  0
 32 26  1  0
 22 16  1  0
M  END
>  <Ki>  (89) 
3.6

>  <database>  (89) 
SRSLDB

$$$$

     RDKit          2D

 33 36  0  0  0  0  0  0  0  0999 V2000
    9.7817   -3.3786    0.0000 C   0  0  0  0  0  0  0  0  0  0  0  0
    9.6394   -1.8853    0.0000 C   0  0  0  0  0  0  0  0  0  0  0  0
   10.8615   -1.0155    0.0000 O   0  0  0  0  0  0  0  0  0  0  0  0
    8.2751   -1.2619    0.0000 C   0  0  0  0  0  0  0  0  0  0  0  0
    7.0531   -2.1318    0.0000 C   0  0  0  0  0  0  0  0  0  0  0  0
    5.6887   -1.5084    0.0000 C   0  0  0  0  0  0  0  0  0  0  0  0
    5.5465   -0.0151    0.0000 C   0  0  0  0  0  0  0  0  0  0  0  0
    6.7685    0.8547    0.0000 C   0  0  0  0  0  0  0  0  0  0  0  0
    8.1328    0.2313    0.0000 C   0  0  0  0  0  0  0  0  0  0  0  0
    6.3189    2.2857    0.0000 O   0  0  0  0  0  0  0  0  0  0  0  0
    4.8189    2.3003    0.0000 C   0  0  0  0  0  0  0  0  0  0  0  0
    3.9491    3.5224    0.0000 O   0  0  0  0  0  0  0  0  0  0  0  0
    4.3416    0.8783    0.0000 N   0  0  0  0  0  0  0  0  0  0  0  0
    2.9105    0.4287    0.0000 C   0  0  0  0  0  0  0  0  0  0  0  0
    1.8056    1.4432    0.0000 C   0  0  0  0  0  0  0  0  0  0  0  0
    0.3746    0.9935    0.0000 C   0  0  0  0  0  0  0  0  0  0  0  0
   -0.7303    2.0080    0.0000 C   0  0  0  0  0  0  0  0  0  0  0  0
   -2.1613    1.5584    0.0000 N   0  0  0  0  0  0  0  0  0  0  0  0
   -3.2662    2.5729    0.0000 C   0  0  0  0  0  0  0  0  0  0  0  0
   -4.6973    2.1232    0.0000 C   0  0  0  0  0  0  0  0  0  0  0  0
   -5.0234    0.6591    0.0000 N   0  0  0  0  0  0  0  0  0  0  0  0
   -6.4544    0.2095    0.0000 C   0  0  0  0  0  0  0  0  0  0  0  0
   -7.5593    1.2240    0.0000 C   0  0  0  0  0  0  0  0  0  0  0  0
   -8.9903    0.7743    0.0000 C   0  0  0  0  0  0  0  0  0  0  0  0
   -9.3165   -0.6898    0.0000 C   0  0  0  0  0  0  0  0  0  0  0  0
  -10.7475   -1.1394    0.0000 F   0  0  0  0  0  0  0  0  0  0  0  0
   -8.2115   -1.7043    0.0000 C   0  0  0  0  0  0  0  0  0  0  0  0
   -6.7805   -1.2546    0.0000 C   0  0  0  0  0  0  0  0  0  0  0  0
   -5.6756   -2.2691    0.0000 N   0  0  0  0  0  4  0  0  0  0  0  0
   -4.2446   -1.8195    0.0000 O   0  0  0  0  0  0  0  0  0  0  0  0
   -6.0017   -3.7332    0.0000 O   0  0  0  0  0  1  0  0  0  0  0  0
   -3.9185   -0.3554    0.0000 C   0  0  0  0  0  0  0  0  0  0  0  0
   -2.4874    0.0943    0.0000 C   0  0  0  0  0  0  0  0  0  0  0  0
  1  2  1  0
  2  3  2  0
  2  4  1  0
  4  5  2  0
  5  6  1  0
  6  7  2  0
  7  8  1  0
  8  9  2  0
  8 10  1  0
 10 11  1  0
 11 12  2  0
 11 13  1  0
 13 14  1  0
 14 15  1  0
 15 16  1  0
 16 17  1  0
 17 18  1  0
 18 19  1  0
 19 20  1  0
 20 21  1  0
 21 22  1  0
 22 23  2  0
 23 24  1  0
 24 25  2  0
 25 26  1  0
 25 27  1  0
 27 28  2  0
 28 29  1  0
 29 30  2  0
 29 31  1  0
 21 32  1  0
 32 33  1  0
  9  4  1  0
 33 18  1  0
 13  7  1  0
 28 22  1  0
M  CHG  2  29   1  31  -1
M  END
>  <Ki>  (90) 
6.3

>  <database>  (90) 
SRSLDB

$$$$

     RDKit          2D

 28 31  0  0  0  0  0  0  0  0999 V2000
    9.8008   -2.3519    0.0000 N   0  0  0  0  0  0  0  0  0  0  0  0
    8.4384   -1.7243    0.0000 C   0  0  0  0  0  0  0  0  0  0  0  0
    7.2137   -2.5903    0.0000 C   0  0  0  0  0  0  0  0  0  0  0  0
    5.8513   -1.9627    0.0000 C   0  0  0  0  0  0  0  0  0  0  0  0
    5.7136   -0.4690    0.0000 C   0  0  0  0  0  0  0  0  0  0  0  0
    6.9384    0.3970    0.0000 C   0  0  0  0  0  0  0  0  0  0  0  0
    8.3008   -0.2306    0.0000 C   0  0  0  0  0  0  0  0  0  0  0  0
    6.4932    1.8294    0.0000 O   0  0  0  0  0  0  0  0  0  0  0  0
    4.9933    1.8486    0.0000 C   0  0  0  0  0  0  0  0  0  0  0  0
    4.1272    3.0734    0.0000 O   0  0  0  0  0  0  0  0  0  0  0  0
    4.5115    0.4281    0.0000 N   0  0  0  0  0  0  0  0  0  0  0  0
    3.0791   -0.0171    0.0000 C   0  0  0  0  0  0  0  0  0  0  0  0
    1.9773    1.0008    0.0000 C   0  0  0  0  0  0  0  0  0  0  0  0
    0.5449    0.5556    0.0000 C   0  0  0  0  0  0  0  0  0  0  0  0
   -0.5568    1.5735    0.0000 C   0  0  0  0  0  0  0  0  0  0  0  0
   -1.9892    1.1283    0.0000 N   0  0  0  0  0  0  0  0  0  0  0  0
   -3.0910    2.1461    0.0000 C   0  0  0  0  0  0  0  0  0  0  0  0
   -4.5234    1.7009    0.0000 C   0  0  0  0  0  0  0  0  0  0  0  0
   -4.8541    0.2378    0.0000 N   0  0  0  0  0  0  0  0  0  0  0  0
   -6.2865   -0.2074    0.0000 C   0  0  0  0  0  0  0  0  0  0  0  0
   -7.3882    0.8105    0.0000 C   0  0  0  0  0  0  0  0  0  0  0  0
   -8.8206    0.3653    0.0000 C   0  0  0  0  0  0  0  0  0  0  0  0
   -9.1513   -1.0978    0.0000 C   0  0  0  0  0  0  0  0  0  0  0  0
  -10.5837   -1.5430    0.0000 F   0  0  0  0  0  0  0  0  0  0  0  0
   -8.0495   -2.1157    0.0000 C   0  0  0  0  0  0  0  0  0  0  0  0
   -6.6171   -1.6705    0.0000 C   0  0  0  0  0  0  0  0  0  0  0  0
   -3.7523   -0.7801    0.0000 C   0  0  0  0  0  0  0  0  0  0  0  0
   -2.3199   -0.3349    0.0000 C   0  0  0  0  0  0  0  0  0  0  0  0
  1  2  1  0
  2  3  2  0
  3  4  1  0
  4  5  2  0
  5  6  1  0
  6  7  2  0
  6  8  1  0
  8  9  1  0
  9 10  2  0
  9 11  1  0
 11 12  1  0
 12 13  1  0
 13 14  1  0
 14 15  1  0
 15 16  1  0
 16 17  1  0
 17 18  1  0
 18 19  1  0
 19 20  1  0
 20 21  2  0
 21 22  1  0
 22 23  2  0
 23 24  1  0
 23 25  1  0
 25 26  2  0
 19 27  1  0
 27 28  1  0
  7  2  1  0
 28 16  1  0
 11  5  1  0
 26 20  1  0
M  END
>  <Ki>  (91) 
177.47

>  <database>  (91) 
SRSLDB

$$$$

     RDKit          2D

 35 38  0  0  0  0  0  0  0  0999 V2000
   -4.3954   -2.4621    0.0000 C   0  0  0  0  0  0  0  0  0  0  0  0
   -2.9852   -1.9509    0.0000 O   0  0  0  0  0  0  0  0  0  0  0  0
   -2.7229   -0.4740    0.0000 C   0  0  0  0  0  0  0  0  0  0  0  0
   -3.8708    0.4916    0.0000 C   0  0  0  0  0  0  0  0  0  0  0  0
   -3.6085    1.9685    0.0000 C   0  0  0  0  0  0  0  0  0  0  0  0
   -2.1983    2.4798    0.0000 C   0  0  0  0  0  0  0  0  0  0  0  0
   -1.9360    3.9567    0.0000 C   0  0  0  0  0  0  0  0  0  0  0  0
   -1.0504    1.5142    0.0000 C   0  0  0  0  0  0  0  0  0  0  0  0
   -1.3127    0.0373    0.0000 C   0  0  0  0  0  0  0  0  0  0  0  0
   -0.1649   -0.9283    0.0000 N   0  0  0  0  0  0  0  0  0  0  0  0
    1.2453   -0.4171    0.0000 C   0  0  0  0  0  0  0  0  0  0  0  0
    1.5076    1.0598    0.0000 O   0  0  0  0  0  0  0  0  0  0  0  0
    2.3932   -1.3827    0.0000 O   0  0  0  0  0  0  0  0  0  0  0  0
    3.8033   -0.8714    0.0000 C   0  0  0  0  0  0  0  0  0  0  0  0
    4.9512   -1.8370    0.0000 C   0  0  0  0  0  0  0  0  0  0  0  0
    6.3614   -1.3257    0.0000 C   0  0  0  0  0  0  0  0  0  0  0  0
    7.7716   -0.8145    0.0000 C   0  0  0  0  0  0  0  0  0  0  0  0
    8.0339    0.6624    0.0000 C   0  0  0  0  0  0  0  0  0  0  0  0
    6.8860    1.6280    0.0000 C   0  0  0  0  0  0  0  0  0  0  0  0
    5.4758    1.1168    0.0000 C   0  0  0  0  0  0  0  0  0  0  0  0
    4.0656    0.6055    0.0000 C   0  0  0  0  0  0  0  0  0  0  0  0
    5.2135   -0.3601    0.0000 N   0  0  0  0  0  0  0  0  0  0  0  0
    3.8033   -0.8714    0.0000 C   0  0  0  0  0  0  0  0  0  0  0  0
    2.6555    0.0942    0.0000 C   0  0  0  0  0  0  0  0  0  0  0  0
    1.2453   -0.4171    0.0000 C   0  0  0  0  0  0  0  0  0  0  0  0
    0.0974    0.5486    0.0000 C   0  0  0  0  0  0  0  0  0  0  0  0
   -1.3127    0.0373    0.0000 N   0  0  0  0  0  0  0  0  0  0  0  0
   -2.4606    1.0029    0.0000 C   0  0  0  0  0  0  0  0  0  0  0  0
   -3.8708    0.4916    0.0000 C   0  0  0  0  0  0  0  0  0  0  0  0
   -5.0187    1.4572    0.0000 C   0  0  0  0  0  0  0  0  0  0  0  0
   -6.4288    0.9460    0.0000 C   0  0  0  0  0  0  0  0  0  0  0  0
   -6.6911   -0.5309    0.0000 C   0  0  0  0  0  0  0  0  0  0  0  0
   -5.5433   -1.4965    0.0000 C   0  0  0  0  0  0  0  0  0  0  0  0
   -5.8056   -2.9734    0.0000 I   0  0  0  0  0  0  0  0  0  0  0  0
   -4.1331   -0.9853    0.0000 C   0  0  0  0  0  0  0  0  0  0  0  0
  1  2  1  0
  2  3  1  0
  3  4  2  0
  4  5  1  0
  5  6  2  0
  6  7  1  0
  6  8  1  0
  8  9  2  0
  9 10  1  0
 10 11  1  0
 11 12  2  0
 11 13  1  0
 13 14  1  0
 14 15  1  0
 15 16  1  0
 16 17  1  0
 17 18  1  0
 18 19  1  0
 19 20  1  0
 20 21  1  0
 20 22  1  0
 22 23  1  0
 23 24  1  0
 24 25  1  0
 25 26  1  0
 26 27  1  0
 27 28  1  0
 28 29  1  0
 29 30  2  0
 30 31  1  0
 31 32  2  0
 32 33  1  0
 33 34  1  0
 33 35  2  0
  9  3  1  0
 21 14  1  0
 35 29  1  0
 22 16  1  0
M  END
>  <Ki>  (92) 
1.21

>  <database>  (92) 
SRSLDB

$$$$

     RDKit          2D

 20 26  0  0  0  0  0  0  0  0999 V2000
    0.6197    3.1501    0.0000 O   0  0  0  0  0  0  0  0  0  0  0  0
    0.5586    1.6513    0.0000 C   0  0  0  0  0  0  0  0  0  0  0  0
    2.0029    2.0563    0.0000 C   0  0  0  0  0  0  0  0  0  0  0  0
    4.6404    0.1386    0.0000 C   0  0  0  0  0  0  0  0  0  0  0  0
    5.0455   -1.3057    0.0000 C   0  0  0  0  0  0  0  0  0  0  0  0
    3.7970   -2.1372    0.0000 C   0  0  0  0  0  0  0  0  0  0  0  0
    2.6204   -1.2068    0.0000 C   0  0  0  0  0  0  0  0  0  0  0  0
    3.1417    0.1997    0.0000 C   0  0  0  0  0  0  0  0  0  0  0  0
    1.7352    0.7209    0.0000 C   0  0  0  0  0  0  0  0  0  0  0  0
    1.2139   -0.6856    0.0000 C   0  0  0  0  0  0  0  0  0  0  0  0
   -0.2848   -0.6245    0.0000 C   0  0  0  0  0  0  0  0  0  0  0  0
    4.1303   -0.6747    0.0000 C   0  0  0  0  0  0  0  0  0  0  0  0
   -0.6899    0.8198    0.0000 N   0  0  0  0  0  0  0  0  0  0  0  0
   -2.0964    1.3411    0.0000 C   0  0  0  0  0  0  0  0  0  0  0  0
   -3.2511    0.3836    0.0000 C   0  0  0  0  0  0  0  0  0  0  0  0
   -4.6576    0.9049    0.0000 C   0  0  0  0  0  0  0  0  0  0  0  0
   -5.8123   -0.0526    0.0000 C   0  0  0  0  0  0  0  0  0  0  0  0
   -5.5604   -1.5313    0.0000 C   0  0  0  0  0  0  0  0  0  0  0  0
   -4.1539   -2.0526    0.0000 C   0  0  0  0  0  0  0  0  0  0  0  0
   -2.9992   -1.0951    0.0000 N   0  0  0  0  0  0  0  0  0  0  0  0
  1  2  1  0
  2  3  1  0
  3  4  1  0
  4  5  1  0
  5  6  1  0
  6  7  1  0
  7  8  1  0
  8  9  1  0
  9 10  1  0
 10 11  1  0
 11 12  1  0
 11 13  1  0
 13 14  1  0
 14 15  1  0
 15 16  2  0
 16 17  1  0
 17 18  2  0
 18 19  1  0
 19 20  2  0
  9  2  1  0
 20 15  1  0
 13  2  1  0
 12  3  1  0
  8  4  1  0
 12  6  1  0
 10  7  1  0
M  END
>  <ChemBL_ID>  (93) 
CHEMBL2205832

>  <Ki>  (93) 
20.0

>  <database>  (93) 
SRSLDB

$$$$

     RDKit          2D

 32 36  0  0  0  0  0  0  0  0999 V2000
  -10.2158    1.1085    0.0000 C   0  0  0  0  0  0  0  0  0  0  0  0
   -9.3782   -0.1358    0.0000 O   0  0  0  0  0  0  0  0  0  0  0  0
   -7.8817   -0.0326    0.0000 C   0  0  0  0  0  0  0  0  0  0  0  0
   -7.2229    1.3150    0.0000 C   0  0  0  0  0  0  0  0  0  0  0  0
   -5.7265    1.4182    0.0000 C   0  0  0  0  0  0  0  0  0  0  0  0
   -4.8888    0.1739    0.0000 C   0  0  0  0  0  0  0  0  0  0  0  0
   -5.5476   -1.1737    0.0000 C   0  0  0  0  0  0  0  0  0  0  0  0
   -7.0441   -1.2769    0.0000 C   0  0  0  0  0  0  0  0  0  0  0  0
   -7.7029   -2.6245    0.0000 O   0  0  0  0  0  0  0  0  0  0  0  0
   -6.8653   -3.8688    0.0000 C   0  0  0  0  0  0  0  0  0  0  0  0
   -3.3924    0.2771    0.0000 C   0  0  0  0  0  0  0  0  0  0  0  0
   -2.7336    1.6247    0.0000 N   0  0  0  0  0  0  0  0  0  0  0  0
   -1.2371    1.7280    0.0000 C   0  0  0  0  0  0  0  0  0  0  0  0
   -0.3995    0.4836    0.0000 C   0  0  0  0  0  0  0  0  0  0  0  0
    1.0969    0.5869    0.0000 C   0  0  0  0  0  0  0  0  0  0  0  0
    1.9346   -0.6575    0.0000 C   0  0  0  0  0  0  0  0  0  0  0  0
    3.4310   -0.5542    0.0000 N   0  0  0  0  0  0  0  0  0  0  0  0
    4.2271    0.7171    0.0000 C   0  0  0  0  0  0  0  0  0  0  0  0
    5.6822    0.3529    0.0000 C   0  0  0  0  0  0  0  0  0  0  0  0
    6.8321    1.3160    0.0000 C   0  0  0  0  0  0  0  0  0  0  0  0
    6.7289    2.8124    0.0000 C   0  0  0  0  0  0  0  0  0  0  0  0
    8.1202    3.3730    0.0000 C   0  0  0  0  0  0  0  0  0  0  0  0
    9.0833    2.2231    0.0000 O   0  0  0  0  0  0  0  0  0  0  0  0
    8.2872    0.9517    0.0000 C   0  0  0  0  0  0  0  0  0  0  0  0
    5.7854   -1.1436    0.0000 C   0  0  0  0  0  0  0  0  0  0  0  0
    6.9666   -2.0682    0.0000 C   0  0  0  0  0  0  0  0  0  0  0  0
    6.7564   -3.5534    0.0000 C   0  0  0  0  0  0  0  0  0  0  0  0
    5.3651   -4.1140    0.0000 C   0  0  0  0  0  0  0  0  0  0  0  0
    4.1840   -3.1894    0.0000 C   0  0  0  0  0  0  0  0  0  0  0  0
    4.3941   -1.7042    0.0000 C   0  0  0  0  0  0  0  0  0  0  0  0
   -3.5712    2.8690    0.0000 C   0  0  0  0  0  0  0  0  0  0  0  0
   -5.0677    2.7658    0.0000 C   0  0  0  0  0  0  0  0  0  0  0  0
  1  2  1  0
  2  3  1  0
  3  4  2  0
  4  5  1  0
  5  6  2  0
  6  7  1  0
  7  8  2  0
  8  9  1  0
  9 10  1  0
  6 11  1  0
 11 12  1  0
 12 13  1  0
 13 14  1  0
 14 15  1  0
 15 16  1  0
 16 17  1  0
 17 18  1  0
 18 19  2  0
 19 20  1  0
 20 21  1  0
 21 22  2  0
 22 23  1  0
 23 24  1  0
 19 25  1  0
 25 26  2  0
 26 27  1  0
 27 28  2  0
 28 29  1  0
 29 30  2  0
 12 31  1  0
 31 32  1  0
  8  3  1  0
 30 17  1  0
 32  5  1  0
 24 20  2  0
 30 25  1  0
M  END
>  <ChemBL_ID>  (94) 
CHEMBL1831169

>  <Ki>  (94) 
12.02

>  <database>  (94) 
SRSLDB

$$$$

     RDKit          2D

 31 33  0  0  0  0  0  0  0  0999 V2000
   -7.8543    3.9944    0.0000 C   0  0  0  0  0  0  0  0  0  0  0  0
   -8.1620    2.5263    0.0000 O   0  0  0  0  0  0  0  0  0  0  0  0
   -7.0444    1.5258    0.0000 C   0  0  0  0  0  0  0  0  0  0  0  0
   -5.6191    1.9934    0.0000 C   0  0  0  0  0  0  0  0  0  0  0  0
   -4.5016    0.9929    0.0000 C   0  0  0  0  0  0  0  0  0  0  0  0
   -3.0763    1.4605    0.0000 Br  0  0  0  0  0  0  0  0  0  0  0  0
   -4.8092   -0.4752    0.0000 C   0  0  0  0  0  0  0  0  0  0  0  0
   -3.6917   -1.4758    0.0000 C   0  0  0  0  0  0  0  0  0  0  0  0
   -3.9993   -2.9439    0.0000 O   0  0  0  0  0  0  0  0  0  0  0  0
   -2.2664   -1.0082    0.0000 N   0  0  0  0  0  0  0  0  0  0  0  0
   -1.1488   -2.0087    0.0000 C   0  0  0  0  0  0  0  0  0  0  0  0
    0.2764   -1.5411    0.0000 C   0  0  0  0  0  0  0  0  0  0  0  0
    1.3940   -2.5416    0.0000 C   0  0  0  0  0  0  0  0  0  0  0  0
    2.8193   -2.0740    0.0000 N   0  0  0  0  0  0  0  0  0  0  0  0
    3.9368   -3.0745    0.0000 C   0  0  0  0  0  0  0  0  0  0  0  0
    5.3621   -2.6069    0.0000 C   0  0  0  0  0  0  0  0  0  0  0  0
    5.6698   -1.1388    0.0000 C   0  0  0  0  0  0  0  0  0  0  0  0
    7.0950   -0.6712    0.0000 C   0  0  0  0  0  0  0  0  0  0  0  0
    7.4027    0.7969    0.0000 C   0  0  0  0  0  0  0  0  0  0  0  0
    8.8280    1.2645    0.0000 O   0  0  0  0  0  0  0  0  0  0  0  0
    9.9455    0.2640    0.0000 C   0  0  0  0  0  0  0  0  0  0  0  0
    6.2851    1.7974    0.0000 C   0  0  0  0  0  0  0  0  0  0  0  0
    6.5928    3.2655    0.0000 O   0  0  0  0  0  0  0  0  0  0  0  0
    5.4752    4.2660    0.0000 C   0  0  0  0  0  0  0  0  0  0  0  0
    4.8599    1.3298    0.0000 C   0  0  0  0  0  0  0  0  0  0  0  0
    4.5522   -0.1383    0.0000 C   0  0  0  0  0  0  0  0  0  0  0  0
    3.1269   -0.6059    0.0000 C   0  0  0  0  0  0  0  0  0  0  0  0
   -6.2345   -0.9428    0.0000 C   0  0  0  0  0  0  0  0  0  0  0  0
   -7.3521    0.0577    0.0000 C   0  0  0  0  0  0  0  0  0  0  0  0
   -8.7773   -0.4099    0.0000 O   0  0  0  0  0  0  0  0  0  0  0  0
   -9.0850   -1.8780    0.0000 C   0  0  0  0  0  0  0  0  0  0  0  0
  1  2  1  0
  2  3  1  0
  3  4  2  0
  4  5  1  0
  5  6  1  0
  5  7  2  0
  7  8  1  0
  8  9  2  0
  8 10  1  0
 10 11  1  0
 11 12  1  0
 12 13  1  0
 13 14  1  0
 14 15  1  0
 15 16  1  0
 16 17  1  0
 17 18  2  0
 18 19  1  0
 19 20  1  0
 20 21  1  0
 19 22  2  0
 22 23  1  0
 23 24  1  0
 22 25  1  0
 25 26  2  0
 26 27  1  0
  7 28  1  0
 28 29  2  0
 29 30  1  0
 30 31  1  0
 29  3  1  0
 27 14  1  0
 26 17  1  0
M  END
>  <ChemBL_ID>  (95) 
CHEMBL1851734

>  <Ki>  (95) 
50.9

>  <database>  (95) 
SRSLDB

$$$$

     RDKit          2D

 30 33  0  0  0  0  0  0  0  0999 V2000
   -5.6237   -2.5028    0.0000 C   0  0  0  0  0  0  0  0  0  0  0  0
   -4.2288   -1.9513    0.0000 O   0  0  0  0  0  0  0  0  0  0  0  0
   -4.0089   -0.4675    0.0000 C   0  0  0  0  0  0  0  0  0  0  0  0
   -5.1840    0.4648    0.0000 C   0  0  0  0  0  0  0  0  0  0  0  0
   -4.9642    1.9486    0.0000 C   0  0  0  0  0  0  0  0  0  0  0  0
   -3.5692    2.5001    0.0000 C   0  0  0  0  0  0  0  0  0  0  0  0
   -3.3494    3.9839    0.0000 C   0  0  0  0  0  0  0  0  0  0  0  0
   -2.3941    1.5678    0.0000 C   0  0  0  0  0  0  0  0  0  0  0  0
   -2.6140    0.0840    0.0000 C   0  0  0  0  0  0  0  0  0  0  0  0
   -1.4389   -0.8483    0.0000 N   0  0  0  0  0  0  0  0  0  0  0  0
   -0.0440   -0.2968    0.0000 C   0  0  0  0  0  0  0  0  0  0  0  0
    0.1759    1.1870    0.0000 O   0  0  0  0  0  0  0  0  0  0  0  0
    1.1311   -1.2291    0.0000 O   0  0  0  0  0  0  0  0  0  0  0  0
    2.5260   -0.6775    0.0000 C   0  0  0  0  0  0  0  0  0  0  0  0
    3.7011   -1.6098    0.0000 C   0  0  0  0  0  0  0  0  0  0  0  0
    5.0961   -1.0583    0.0000 C   0  0  0  0  0  0  0  0  0  0  0  0
    6.4910   -0.5068    0.0000 C   0  0  0  0  0  0  0  0  0  0  0  0
    6.7109    0.9770    0.0000 C   0  0  0  0  0  0  0  0  0  0  0  0
    5.5358    1.9093    0.0000 C   0  0  0  0  0  0  0  0  0  0  0  0
    4.1408    1.3578    0.0000 C   0  0  0  0  0  0  0  0  0  0  0  0
    2.7459    0.8063    0.0000 C   0  0  0  0  0  0  0  0  0  0  0  0
    3.9210   -0.1260    0.0000 N   0  0  0  0  0  0  0  0  0  0  0  0
    2.5260   -0.6775    0.0000 C   0  0  0  0  0  0  0  0  0  0  0  0
    1.3510    0.2547    0.0000 C   0  0  0  0  0  0  0  0  0  0  0  0
   -0.0440   -0.2968    0.0000 C   0  0  0  0  0  0  0  0  0  0  0  0
   -1.2191    0.6355    0.0000 C   0  0  0  0  0  0  0  0  0  0  0  0
   -2.6140    0.0840    0.0000 C   0  0  0  0  0  0  0  0  0  0  0  0
   -2.8338   -1.3998    0.0000 C   0  0  0  0  0  0  0  0  0  0  0  0
   -1.6588   -2.3321    0.0000 C   0  0  0  0  0  0  0  0  0  0  0  0
   -0.2638   -1.7806    0.0000 C   0  0  0  0  0  0  0  0  0  0  0  0
  1  2  1  0
  2  3  1  0
  3  4  2  0
  4  5  1  0
  5  6  2  0
  6  7  1  0
  6  8  1  0
  8  9  2  0
  9 10  1  0
 10 11  1  0
 11 12  2  0
 11 13  1  0
 13 14  1  0
 14 15  1  0
 15 16  1  0
 16 17  1  0
 17 18  1  0
 18 19  1  0
 19 20  1  0
 20 21  1  0
 20 22  1  0
 22 23  1  0
 23 24  1  0
 24 25  1  0
 25 26  2  0
 26 27  1  0
 27 28  2  0
 28 29  1  0
 29 30  2  0
  9  3  1  0
 21 14  1  0
 30 25  1  0
 22 16  1  0
M  END
>  <Ki>  (96) 
1.2

>  <database>  (96) 
SRSLDB

$$$$

     RDKit          2D

 28 31  0  0  0  0  0  0  0  0999 V2000
   -9.0554    0.3724    0.0000 C   0  0  0  0  0  0  0  0  0  0  0  0
   -8.0799   -0.7670    0.0000 O   0  0  0  0  0  0  0  0  0  0  0  0
   -6.6053   -0.4918    0.0000 C   0  0  0  0  0  0  0  0  0  0  0  0
   -6.1064    0.9227    0.0000 C   0  0  0  0  0  0  0  0  0  0  0  0
   -4.6318    1.1979    0.0000 C   0  0  0  0  0  0  0  0  0  0  0  0
   -3.6562    0.0585    0.0000 C   0  0  0  0  0  0  0  0  0  0  0  0
   -4.1552   -1.3561    0.0000 C   0  0  0  0  0  0  0  0  0  0  0  0
   -5.6297   -1.6313    0.0000 C   0  0  0  0  0  0  0  0  0  0  0  0
   -6.1287   -3.0458    0.0000 O   0  0  0  0  0  0  0  0  0  0  0  0
   -5.1531   -4.1852    0.0000 C   0  0  0  0  0  0  0  0  0  0  0  0
   -2.1817    0.3337    0.0000 C   0  0  0  0  0  0  0  0  0  0  0  0
   -1.6827    1.7483    0.0000 N   0  0  0  0  0  0  0  0  0  0  0  0
   -0.2082    2.0234    0.0000 C   0  0  0  0  0  0  0  0  0  0  0  0
    0.7674    0.8840    0.0000 C   0  0  0  0  0  0  0  0  0  0  0  0
    2.2419    1.1592    0.0000 C   0  0  0  0  0  0  0  0  0  0  0  0
    3.2175    0.0198    0.0000 C   0  0  0  0  0  0  0  0  0  0  0  0
    4.6921    0.2950    0.0000 N   0  0  0  0  0  0  0  0  0  0  0  0
    5.3362    1.6497    0.0000 C   0  0  0  0  0  0  0  0  0  0  0  0
    4.6188    2.9670    0.0000 O   0  0  0  0  0  0  0  0  0  0  0  0
    6.8236    1.4557    0.0000 O   0  0  0  0  0  0  0  0  0  0  0  0
    7.0987   -0.0188    0.0000 C   0  0  0  0  0  0  0  0  0  0  0  0
    8.3787   -0.8010    0.0000 C   0  0  0  0  0  0  0  0  0  0  0  0
    8.3413   -2.3005    0.0000 C   0  0  0  0  0  0  0  0  0  0  0  0
    7.0239   -3.0179    0.0000 C   0  0  0  0  0  0  0  0  0  0  0  0
    5.7440   -2.2357    0.0000 C   0  0  0  0  0  0  0  0  0  0  0  0
    5.7814   -0.7362    0.0000 C   0  0  0  0  0  0  0  0  0  0  0  0
   -2.6583    2.8877    0.0000 C   0  0  0  0  0  0  0  0  0  0  0  0
   -4.1328    2.6125    0.0000 C   0  0  0  0  0  0  0  0  0  0  0  0
  1  2  1  0
  2  3  1  0
  3  4  2  0
  4  5  1  0
  5  6  2  0
  6  7  1  0
  7  8  2  0
  8  9  1  0
  9 10  1  0
  6 11  1  0
 11 12  1  0
 12 13  1  0
 13 14  1  0
 14 15  1  0
 15 16  1  0
 16 17  1  0
 17 18  1  0
 18 19  2  0
 18 20  1  0
 20 21  1  0
 21 22  2  0
 22 23  1  0
 23 24  2  0
 24 25  1  0
 25 26  2  0
 12 27  1  0
 27 28  1  0
  8  3  1  0
 26 17  1  0
 28  5  1  0
 26 21  1  0
M  END
>  <Ki>  (97) 
1.52

>  <database>  (97) 
SRSLDB

$$$$

     RDKit          2D

 30 32  0  0  0  0  0  0  0  0999 V2000
  -10.0532    0.7687    0.0000 C   0  0  0  0  0  0  0  0  0  0  0  0
   -9.1448   -0.4250    0.0000 O   0  0  0  0  0  0  0  0  0  0  0  0
   -7.6568   -0.2351    0.0000 C   0  0  0  0  0  0  0  0  0  0  0  0
   -7.0773    1.1485    0.0000 C   0  0  0  0  0  0  0  0  0  0  0  0
   -5.5894    1.3384    0.0000 C   0  0  0  0  0  0  0  0  0  0  0  0
   -4.6810    0.1447    0.0000 C   0  0  0  0  0  0  0  0  0  0  0  0
   -5.2605   -1.2388    0.0000 C   0  0  0  0  0  0  0  0  0  0  0  0
   -6.7484   -1.4287    0.0000 C   0  0  0  0  0  0  0  0  0  0  0  0
   -7.3279   -2.8122    0.0000 O   0  0  0  0  0  0  0  0  0  0  0  0
   -6.4195   -4.0059    0.0000 C   0  0  0  0  0  0  0  0  0  0  0  0
   -3.1930    0.3346    0.0000 C   0  0  0  0  0  0  0  0  0  0  0  0
   -2.6135    1.7181    0.0000 N   0  0  0  0  0  0  0  0  0  0  0  0
   -1.1256    1.9080    0.0000 C   0  0  0  0  0  0  0  0  0  0  0  0
   -0.2172    0.7144    0.0000 C   0  0  0  0  0  0  0  0  0  0  0  0
    1.2708    0.9043    0.0000 C   0  0  0  0  0  0  0  0  0  0  0  0
    2.1792   -0.2894    0.0000 C   0  0  0  0  0  0  0  0  0  0  0  0
    3.6671   -0.0995    0.0000 N   0  0  0  0  0  0  0  0  0  0  0  0
    4.5755   -1.2931    0.0000 C   0  0  0  0  0  0  0  0  0  0  0  0
    3.9960   -2.6767    0.0000 O   0  0  0  0  0  0  0  0  0  0  0  0
    6.0634   -1.1032    0.0000 C   0  0  0  0  0  0  0  0  0  0  0  0
    6.9719   -2.2969    0.0000 C   0  0  0  0  0  0  0  0  0  0  0  0
    8.4598   -2.1070    0.0000 C   0  0  0  0  0  0  0  0  0  0  0  0
    9.0393   -0.7235    0.0000 C   0  0  0  0  0  0  0  0  0  0  0  0
    8.1309    0.4702    0.0000 C   0  0  0  0  0  0  0  0  0  0  0  0
    8.7104    1.8537    0.0000 O   0  0  0  0  0  0  0  0  0  0  0  0
   10.1983    2.0436    0.0000 C   0  0  0  0  0  0  0  0  0  0  0  0
    6.6430    0.2803    0.0000 C   0  0  0  0  0  0  0  0  0  0  0  0
    5.7345    1.4739    0.0000 O   0  0  0  0  0  0  0  0  0  0  0  0
   -3.5219    2.9118    0.0000 C   0  0  0  0  0  0  0  0  0  0  0  0
   -5.0099    2.7219    0.0000 C   0  0  0  0  0  0  0  0  0  0  0  0
  1  2  1  0
  2  3  1  0
  3  4  2  0
  4  5  1  0
  5  6  2  0
  6  7  1  0
  7  8  2  0
  8  9  1  0
  9 10  1  0
  6 11  1  0
 11 12  1  0
 12 13  1  0
 13 14  1  0
 14 15  1  0
 15 16  1  0
 16 17  1  0
 17 18  1  0
 18 19  2  0
 18 20  1  0
 20 21  2  0
 21 22  1  0
 22 23  2  0
 23 24  1  0
 24 25  1  0
 25 26  1  0
 24 27  2  0
 27 28  1  0
 12 29  1  0
 29 30  1  0
  8  3  1  0
 27 20  1  0
 30  5  1  0
M  END
>  <ChemBL_ID>  (98) 
CHEMBL1927698

>  <Ki>  (98) 
1400.0

>  <database>  (98) 
SRSLDB

$$$$

     RDKit          2D

 21 26  0  0  0  0  0  0  0  0999 V2000
    0.4144   -3.2013    0.0000 C   0  0  0  0  0  0  0  0  0  0  0  0
    0.5395   -1.7066    0.0000 N   0  0  0  0  0  0  0  0  0  0  0  0
   -0.6924   -0.8509    0.0000 C   0  0  0  0  0  0  0  0  0  0  0  0
   -2.0495   -1.4899    0.0000 C   0  0  0  0  0  0  0  0  0  0  0  0
   -3.2815   -0.6342    0.0000 C   0  0  0  0  0  0  0  0  0  0  0  0
   -3.1564    0.8606    0.0000 C   0  0  0  0  0  0  0  0  0  0  0  0
   -4.3884    1.7163    0.0000 C   0  0  0  0  0  0  0  0  0  0  0  0
   -5.7454    1.0772    0.0000 C   0  0  0  0  0  0  0  0  0  0  0  0
   -5.8705   -0.4176    0.0000 C   0  0  0  0  0  0  0  0  0  0  0  0
   -4.6385   -1.2733    0.0000 C   0  0  0  0  0  0  0  0  0  0  0  0
    1.8966   -1.0675    0.0000 C   0  0  0  0  0  0  0  0  0  0  0  0
    3.2113   -1.7897    0.0000 C   0  0  0  0  0  0  0  0  0  0  0  0
    2.4575   -0.4929    0.0000 C   0  0  0  0  0  0  0  0  0  0  0  0
    1.0854    0.1133    0.0000 C   0  0  0  0  0  0  0  0  0  0  0  0
    1.2379    1.6055    0.0000 C   0  0  0  0  0  0  0  0  0  0  0  0
    2.7043    1.9216    0.0000 C   0  0  0  0  0  0  0  0  0  0  0  0
    3.4580    0.6247    0.0000 C   0  0  0  0  0  0  0  0  0  0  0  0
    4.8301    0.0186    0.0000 C   0  0  0  0  0  0  0  0  0  0  0  0
    4.6776   -1.4737    0.0000 C   0  0  0  0  0  0  0  0  0  0  0  0
    2.3882    3.3879    0.0000 C   0  0  0  0  0  0  0  0  0  0  0  0
    0.9218    3.0718    0.0000 C   0  0  0  0  0  0  0  0  0  0  0  0
  1  2  1  0
  2  3  1  0
  3  4  1  0
  4  5  1  0
  5  6  2  0
  6  7  1  0
  7  8  2  0
  8  9  1  0
  9 10  2  0
  2 11  1  0
 11 12  1  0
 12 13  1  0
 13 14  1  0
 14 15  1  0
 15 16  1  0
 16 17  1  0
 17 18  1  0
 18 19  1  0
 19 20  1  0
 20 21  1  0
 10  5  1  0
 21 11  1  0
 19 12  1  0
 17 13  1  0
 21 15  1  0
 20 16  1  0
M  END
>  <ChemBL_ID>  (99) 
CHEMBL2432058

>  <Ki>  (99) 
16.0

>  <database>  (99) 
SRSLDB

$$$$

     RDKit          2D

 26 29  0  0  0  0  0  0  0  0999 V2000
    5.3422   -3.6662    0.0000 O   0  0  0  0  0  0  0  0  0  0  0  0
    5.6027   -2.1890    0.0000 C   0  0  0  0  0  0  0  0  0  0  0  0
    6.9510   -1.5315    0.0000 O   0  0  0  0  0  0  0  0  0  0  0  0
    6.7423   -0.0461    0.0000 C   0  0  0  0  0  0  0  0  0  0  0  0
    7.7065    1.1029    0.0000 C   0  0  0  0  0  0  0  0  0  0  0  0
    7.1936    2.5125    0.0000 C   0  0  0  0  0  0  0  0  0  0  0  0
    5.7164    2.7730    0.0000 C   0  0  0  0  0  0  0  0  0  0  0  0
    4.7522    1.6240    0.0000 C   0  0  0  0  0  0  0  0  0  0  0  0
    5.2651    0.2145    0.0000 C   0  0  0  0  0  0  0  0  0  0  0  0
    4.5608   -1.1099    0.0000 N   0  0  0  0  0  0  0  0  0  0  0  0
    3.0754   -1.3186    0.0000 C   0  0  0  0  0  0  0  0  0  0  0  0
    2.1520   -0.1365    0.0000 C   0  0  0  0  0  0  0  0  0  0  0  0
    0.6666   -0.3452    0.0000 C   0  0  0  0  0  0  0  0  0  0  0  0
   -0.2569    0.8369    0.0000 C   0  0  0  0  0  0  0  0  0  0  0  0
   -1.7423    0.6283    0.0000 N   0  0  0  0  0  0  0  0  0  0  0  0
   -2.6657    1.8103    0.0000 C   0  0  0  0  0  0  0  0  0  0  0  0
   -4.1511    1.6017    0.0000 C   0  0  0  0  0  0  0  0  0  0  0  0
   -4.7131    0.2109    0.0000 N   0  0  0  0  0  0  0  0  0  0  0  0
   -6.1985    0.0023    0.0000 C   0  0  0  0  0  0  0  0  0  0  0  0
   -7.1219    1.1843    0.0000 C   0  0  0  0  0  0  0  0  0  0  0  0
   -8.6074    0.9757    0.0000 C   0  0  0  0  0  0  0  0  0  0  0  0
   -9.1694   -0.4151    0.0000 C   0  0  0  0  0  0  0  0  0  0  0  0
   -8.2459   -1.5971    0.0000 C   0  0  0  0  0  0  0  0  0  0  0  0
   -6.7605   -1.3885    0.0000 C   0  0  0  0  0  0  0  0  0  0  0  0
   -3.7897   -0.9712    0.0000 C   0  0  0  0  0  0  0  0  0  0  0  0
   -2.3043   -0.7625    0.0000 C   0  0  0  0  0  0  0  0  0  0  0  0
  1  2  2  0
  2  3  1  0
  3  4  1  0
  4  5  2  0
  5  6  1  0
  6  7  2  0
  7  8  1  0
  8  9  2  0
  9 10  1  0
 10 11  1  0
 11 12  1  0
 12 13  1  0
 13 14  1  0
 14 15  1  0
 15 16  1  0
 16 17  1  0
 17 18  1  0
 18 19  1  0
 19 20  2  0
 20 21  1  0
 21 22  2  0
 22 23  1  0
 23 24  2  0
 18 25  1  0
 25 26  1  0
 10  2  1  0
 26 15  1  0
  9  4  1  0
 24 19  1  0
M  END
>  <Ki>  (100) 
11.44

>  <database>  (100) 
SRSLDB

$$$$

     RDKit          2D

 33 35  0  0  0  0  0  0  0  0999 V2000
   -9.0877   -3.9651    0.0000 C   0  0  0  0  0  0  0  0  0  0  0  0
   -7.6365   -3.5854    0.0000 O   0  0  0  0  0  0  0  0  0  0  0  0
   -7.2398   -2.1388    0.0000 C   0  0  0  0  0  0  0  0  0  0  0  0
   -8.2943   -1.0720    0.0000 C   0  0  0  0  0  0  0  0  0  0  0  0
   -7.8976    0.3746    0.0000 C   0  0  0  0  0  0  0  0  0  0  0  0
   -6.4465    0.7544    0.0000 C   0  0  0  0  0  0  0  0  0  0  0  0
   -6.0498    2.2010    0.0000 O   0  0  0  0  0  0  0  0  0  0  0  0
   -7.1042    3.2678    0.0000 C   0  0  0  0  0  0  0  0  0  0  0  0
   -6.7075    4.7144    0.0000 C   0  0  0  0  0  0  0  0  0  0  0  0
   -7.7620    5.7813    0.0000 F   0  0  0  0  0  0  0  0  0  0  0  0
   -5.3920   -0.3124    0.0000 C   0  0  0  0  0  0  0  0  0  0  0  0
   -3.9409    0.0673    0.0000 C   0  0  0  0  0  0  0  0  0  0  0  0
   -3.5442    1.5139    0.0000 O   0  0  0  0  0  0  0  0  0  0  0  0
   -2.8864   -0.9995    0.0000 N   0  0  0  0  0  0  0  0  0  0  0  0
   -1.4353   -0.6198    0.0000 C   0  0  0  0  0  0  0  0  0  0  0  0
   -0.3809   -1.6866    0.0000 C   0  0  0  0  0  0  0  0  0  0  0  0
    1.0703   -1.3068    0.0000 C   0  0  0  0  0  0  0  0  0  0  0  0
    2.1247   -2.3737    0.0000 C   0  0  0  0  0  0  0  0  0  0  0  0
    3.5758   -1.9939    0.0000 N   0  0  0  0  0  0  0  0  0  0  0  0
    4.6303   -3.0608    0.0000 C   0  0  0  0  0  0  0  0  0  0  0  0
    6.0814   -2.6810    0.0000 C   0  0  0  0  0  0  0  0  0  0  0  0
    6.4781   -1.2344    0.0000 C   0  0  0  0  0  0  0  0  0  0  0  0
    7.9292   -0.8546    0.0000 C   0  0  0  0  0  0  0  0  0  0  0  0
    8.3259    0.5920    0.0000 C   0  0  0  0  0  0  0  0  0  0  0  0
    9.7771    0.9717    0.0000 O   0  0  0  0  0  0  0  0  0  0  0  0
   10.8315   -0.0951    0.0000 C   0  0  0  0  0  0  0  0  0  0  0  0
    7.2715    1.6588    0.0000 C   0  0  0  0  0  0  0  0  0  0  0  0
    7.6682    3.1054    0.0000 O   0  0  0  0  0  0  0  0  0  0  0  0
    6.6137    4.1722    0.0000 C   0  0  0  0  0  0  0  0  0  0  0  0
    5.8204    1.2790    0.0000 C   0  0  0  0  0  0  0  0  0  0  0  0
    5.4237   -0.1676    0.0000 C   0  0  0  0  0  0  0  0  0  0  0  0
    3.9725   -0.5473    0.0000 C   0  0  0  0  0  0  0  0  0  0  0  0
   -5.7887   -1.7590    0.0000 C   0  0  0  0  0  0  0  0  0  0  0  0
  1  2  1  0
  2  3  1  0
  3  4  2  0
  4  5  1  0
  5  6  2  0
  6  7  1  0
  7  8  1  0
  8  9  1  0
  9 10  1  0
  6 11  1  0
 11 12  1  0
 12 13  2  0
 12 14  1  0
 14 15  1  0
 15 16  1  0
 16 17  1  0
 17 18  1  0
 18 19  1  0
 19 20  1  0
 20 21  1  0
 21 22  1  0
 22 23  2  0
 23 24  1  0
 24 25  1  0
 25 26  1  0
 24 27  2  0
 27 28  1  0
 28 29  1  0
 27 30  1  0
 30 31  2  0
 31 32  1  0
 11 33  2  0
 33  3  1  0
 32 19  1  0
 31 22  1  0
M  END
>  <Ki>  (101) 
21.8

>  <database>  (101) 
SRSLDB

$$$$

     RDKit          2D

 31 34  0  0  0  0  0  0  0  0999 V2000
   -5.5559   -2.2819    0.0000 C   0  0  0  0  0  0  0  0  0  0  0  0
   -4.1467   -1.7679    0.0000 O   0  0  0  0  0  0  0  0  0  0  0  0
   -3.8873   -0.2905    0.0000 C   0  0  0  0  0  0  0  0  0  0  0  0
   -5.0371    0.6729    0.0000 C   0  0  0  0  0  0  0  0  0  0  0  0
   -4.7777    2.1503    0.0000 C   0  0  0  0  0  0  0  0  0  0  0  0
   -3.3685    2.6643    0.0000 C   0  0  0  0  0  0  0  0  0  0  0  0
   -3.1091    4.1417    0.0000 C   0  0  0  0  0  0  0  0  0  0  0  0
   -2.2187    1.7010    0.0000 C   0  0  0  0  0  0  0  0  0  0  0  0
   -2.4781    0.2236    0.0000 C   0  0  0  0  0  0  0  0  0  0  0  0
   -1.3284   -0.7398    0.0000 N   0  0  0  0  0  0  0  0  0  0  0  0
    0.0808   -0.2257    0.0000 C   0  0  0  0  0  0  0  0  0  0  0  0
    0.3402    1.2517    0.0000 O   0  0  0  0  0  0  0  0  0  0  0  0
    1.2306   -1.1890    0.0000 O   0  0  0  0  0  0  0  0  0  0  0  0
    2.6397   -0.6750    0.0000 C   0  0  0  0  0  0  0  0  0  0  0  0
    3.7895   -1.6383    0.0000 C   0  0  0  0  0  0  0  0  0  0  0  0
    5.1987   -1.1243    0.0000 C   0  0  0  0  0  0  0  0  0  0  0  0
    6.6078   -0.6102    0.0000 C   0  0  0  0  0  0  0  0  0  0  0  0
    6.8672    0.8672    0.0000 C   0  0  0  0  0  0  0  0  0  0  0  0
    5.7175    1.8305    0.0000 C   0  0  0  0  0  0  0  0  0  0  0  0
    4.3083    1.3165    0.0000 C   0  0  0  0  0  0  0  0  0  0  0  0
    2.8991    0.8024    0.0000 C   0  0  0  0  0  0  0  0  0  0  0  0
    4.0489   -0.1609    0.0000 N   0  0  0  0  0  0  0  0  0  0  0  0
    2.6397   -0.6750    0.0000 C   0  0  0  0  0  0  0  0  0  0  0  0
    1.4900    0.2884    0.0000 C   0  0  0  0  0  0  0  0  0  0  0  0
    0.0808   -0.2257    0.0000 C   0  0  0  0  0  0  0  0  0  0  0  0
   -1.0690    0.7376    0.0000 C   0  0  0  0  0  0  0  0  0  0  0  0
   -2.4781    0.2236    0.0000 C   0  0  0  0  0  0  0  0  0  0  0  0
   -2.7375   -1.2538    0.0000 C   0  0  0  0  0  0  0  0  0  0  0  0
   -3.9804   -2.0936    0.0000 F   0  0  0  0  0  0  0  0  0  0  0  0
   -1.5878   -2.2172    0.0000 C   0  0  0  0  0  0  0  0  0  0  0  0
   -0.1786   -1.7031    0.0000 C   0  0  0  0  0  0  0  0  0  0  0  0
  1  2  1  0
  2  3  1  0
  3  4  2  0
  4  5  1  0
  5  6  2  0
  6  7  1  0
  6  8  1  0
  8  9  2  0
  9 10  1  0
 10 11  1  0
 11 12  2  0
 11 13  1  0
 13 14  1  0
 14 15  1  0
 15 16  1  0
 16 17  1  0
 17 18  1  0
 18 19  1  0
 19 20  1  0
 20 21  1  0
 20 22  1  0
 22 23  1  0
 23 24  1  0
 24 25  1  0
 25 26  2  0
 26 27  1  0
 27 28  2  0
 28 29  1  0
 28 30  1  0
 30 31  2  0
  9  3  1  0
 21 14  1  0
 31 25  1  0
 22 16  1  0
M  END
>  <Ki>  (102) 
5.9

>  <database>  (102) 
SRSLDB

$$$$

     RDKit          2D

 13 14  0  0  0  0  0  0  0  0999 V2000
   -4.5577   -0.3167    0.0000 C   0  0  0  0  0  0  0  0  0  0  0  0
   -4.0822    1.1060    0.0000 C   0  0  0  0  0  0  0  0  0  0  0  0
   -2.6124    1.4054    0.0000 C   0  0  0  0  0  0  0  0  0  0  0  0
   -1.6181    0.2822    0.0000 C   0  0  0  0  0  0  0  0  0  0  0  0
   -0.1483    0.5817    0.0000 C   0  0  0  0  0  0  0  0  0  0  0  0
    0.8459   -0.5415    0.0000 C   0  0  0  0  0  0  0  0  0  0  0  0
    2.3157   -0.2421    0.0000 N   0  0  0  0  0  0  0  0  0  0  0  0
    2.9374    1.1230    0.0000 C   0  0  0  0  0  0  0  0  0  0  0  0
    4.4278    0.9536    0.0000 C   0  0  0  0  0  0  0  0  0  0  0  0
    4.7272   -0.5162    0.0000 C   0  0  0  0  0  0  0  0  0  0  0  0
    3.4219   -1.2552    0.0000 C   0  0  0  0  0  0  0  0  0  0  0  0
   -2.0937   -1.1404    0.0000 N   0  0  0  0  0  0  0  0  0  0  0  0
   -3.5635   -1.4398    0.0000 C   0  0  0  0  0  0  0  0  0  0  0  0
  1  2  2  0
  2  3  1  0
  3  4  2  0
  4  5  1  0
  5  6  1  0
  6  7  1  0
  7  8  1  0
  8  9  1  0
  9 10  1  0
 10 11  1  0
  4 12  1  0
 12 13  2  0
 13  1  1  0
 11  7  1  0
M  END
>  <ChemBL_ID>  (103) 
CHEMBL270595

>  <Ki>  (103) 
3516.0

>  <database>  (103) 
SRSLDB

>  <Document_ChEMBL_ID>  (103) 
10.1021/jm0005407

$$$$

     RDKit          2D

 33 36  0  0  0  0  0  0  0  0999 V2000
   10.1381    1.8938    0.0000 C   0  0  0  0  0  0  0  0  0  0  0  0
    8.6453    1.7471    0.0000 O   0  0  0  0  0  0  0  0  0  0  0  0
    8.0259    0.3810    0.0000 C   0  0  0  0  0  0  0  0  0  0  0  0
    8.8994   -0.8385    0.0000 C   0  0  0  0  0  0  0  0  0  0  0  0
    8.2800   -2.2046    0.0000 C   0  0  0  0  0  0  0  0  0  0  0  0
    9.1534   -3.4241    0.0000 Br  0  0  0  0  0  0  0  0  0  0  0  0
    6.7872   -2.3513    0.0000 C   0  0  0  0  0  0  0  0  0  0  0  0
    5.9137   -1.1318    0.0000 C   0  0  0  0  0  0  0  0  0  0  0  0
    4.4209   -1.2785    0.0000 C   0  0  0  0  0  0  0  0  0  0  0  0
    3.8015   -2.6446    0.0000 O   0  0  0  0  0  0  0  0  0  0  0  0
    3.5475   -0.0590    0.0000 N   0  0  0  0  0  0  0  0  0  0  0  0
    2.0547   -0.2057    0.0000 C   0  0  0  0  0  0  0  0  0  0  0  0
    1.1813    1.0138    0.0000 C   0  0  0  0  0  0  0  0  0  0  0  0
   -0.3115    0.8671    0.0000 C   0  0  0  0  0  0  0  0  0  0  0  0
   -1.1850    2.0866    0.0000 C   0  0  0  0  0  0  0  0  0  0  0  0
   -2.6778    1.9399    0.0000 N   0  0  0  0  0  0  0  0  0  0  0  0
   -3.5512    3.1594    0.0000 C   0  0  0  0  0  0  0  0  0  0  0  0
   -5.0440    3.0127    0.0000 C   0  0  0  0  0  0  0  0  0  0  0  0
   -5.6634    1.6466    0.0000 C   0  0  0  0  0  0  0  0  0  0  0  0
   -7.1562    1.4999    0.0000 C   0  0  0  0  0  0  0  0  0  0  0  0
   -7.7756    0.1338    0.0000 C   0  0  0  0  0  0  0  0  0  0  0  0
   -6.9022   -1.0857    0.0000 C   0  0  0  0  0  0  0  0  0  0  0  0
   -5.4094   -0.9390    0.0000 C   0  0  0  0  0  0  0  0  0  0  0  0
   -4.7900    0.4271    0.0000 C   0  0  0  0  0  0  0  0  0  0  0  0
   -3.2972    0.5738    0.0000 C   0  0  0  0  0  0  0  0  0  0  0  0
   -7.3110   -2.5289    0.0000 O   0  0  0  0  0  0  0  0  0  0  0  0
   -8.6943   -3.1091    0.0000 C   0  0  0  0  0  0  0  0  0  0  0  0
  -10.0103   -2.3893    0.0000 C   0  0  0  0  0  0  0  0  0  0  0  0
  -10.2682   -0.9117    0.0000 C   0  0  0  0  0  0  0  0  0  0  0  0
   -9.2736    0.2112    0.0000 O   0  0  0  0  0  0  0  0  0  0  0  0
    6.5331    0.2343    0.0000 C   0  0  0  0  0  0  0  0  0  0  0  0
    5.6597    1.4538    0.0000 O   0  0  0  0  0  0  0  0  0  0  0  0
    6.2791    2.8199    0.0000 C   0  0  0  0  0  0  0  0  0  0  0  0
  1  2  1  0
  2  3  1  0
  3  4  2  0
  4  5  1  0
  5  6  1  0
  5  7  2  0
  7  8  1  0
  8  9  1  0
  9 10  2  0
  9 11  1  0
 11 12  1  0
 12 13  1  0
 13 14  1  0
 14 15  1  0
 15 16  1  0
 16 17  1  0
 17 18  1  0
 18 19  1  0
 19 20  2  0
 20 21  1  0
 21 22  2  0
 22 23  1  0
 23 24  2  0
 24 25  1  0
 22 26  1  0
 26 27  1  0
 27 28  1  0
 28 29  1  0
 29 30  1  0
  8 31  2  0
 31 32  1  0
 32 33  1  0
 31  3  1  0
 25 16  1  0
 24 19  1  0
 30 21  1  0
M  END
>  <ChemBL_ID>  (104) 
CHEMBL394280

>  <Ki>  (104) 
32.6

>  <database>  (104) 
SRSLDB

$$$$

     RDKit          2D

 21 27  0  0  0  0  0  0  0  0999 V2000
    0.7347    2.7521    0.0000 O   0  0  0  0  0  0  0  0  0  0  0  0
    0.9618    1.2694    0.0000 C   0  0  0  0  0  0  0  0  0  0  0  0
    2.3018    1.9436    0.0000 C   0  0  0  0  0  0  0  0  0  0  0  0
    5.2579    0.5667    0.0000 C   0  0  0  0  0  0  0  0  0  0  0  0
    5.9321   -0.7733    0.0000 C   0  0  0  0  0  0  0  0  0  0  0  0
    4.8661   -1.8285    0.0000 C   0  0  0  0  0  0  0  0  0  0  0  0
    3.5331   -1.1408    0.0000 C   0  0  0  0  0  0  0  0  0  0  0  0
    3.7752    0.3395    0.0000 C   0  0  0  0  0  0  0  0  0  0  0  0
    2.2949    0.5817    0.0000 C   0  0  0  0  0  0  0  0  0  0  0  0
    2.0527   -0.8987    0.0000 C   0  0  0  0  0  0  0  0  0  0  0  0
    0.5700   -1.1258    0.0000 C   0  0  0  0  0  0  0  0  0  0  0  0
    4.9130   -0.3293    0.0000 C   0  0  0  0  0  0  0  0  0  0  0  0
   -0.1042    0.2141    0.0000 N   0  0  0  0  0  0  0  0  0  0  0  0
   -1.5845    0.4563    0.0000 C   0  0  0  0  0  0  0  0  0  0  0  0
   -2.5344   -0.7047    0.0000 C   0  0  0  0  0  0  0  0  0  0  0  0
   -4.0147   -0.4625    0.0000 C   0  0  0  0  0  0  0  0  0  0  0  0
   -4.5452    0.9405    0.0000 C   0  0  0  0  0  0  0  0  0  0  0  0
   -6.0255    1.1827    0.0000 C   0  0  0  0  0  0  0  0  0  0  0  0
   -6.9754    0.0218    0.0000 C   0  0  0  0  0  0  0  0  0  0  0  0
   -6.4449   -1.3813    0.0000 C   0  0  0  0  0  0  0  0  0  0  0  0
   -4.9646   -1.6235    0.0000 N   0  0  0  0  0  0  0  0  0  0  0  0
  1  2  1  0
  2  3  1  0
  3  4  1  0
  4  5  1  0
  5  6  1  0
  6  7  1  0
  7  8  1  0
  8  9  1  0
  9 10  1  0
 10 11  1  0
 11 12  1  0
 11 13  1  0
 13 14  1  0
 14 15  1  0
 15 16  1  0
 16 17  2  0
 17 18  1  0
 18 19  2  0
 19 20  1  0
 20 21  2  0
  9  2  1  0
 21 16  1  0
 13  2  1  0
 12  3  1  0
  8  4  1  0
 12  6  1  0
 10  7  1  0
M  END
>  <ChemBL_ID>  (105) 
CHEMBL2205816

>  <Ki>  (105) 
26.8

>  <database>  (105) 
SRSLDB

$$$$

     RDKit          2D

 30 33  0  0  0  0  0  0  0  0999 V2000
    4.3664   -4.3849    0.0000 O   0  0  0  0  0  0  0  0  0  0  0  0
    4.7554   -2.9363    0.0000 C   0  0  0  0  0  0  0  0  0  0  0  0
    6.1560   -2.3994    0.0000 O   0  0  0  0  0  0  0  0  0  0  0  0
    6.0783   -0.9015    0.0000 C   0  0  0  0  0  0  0  0  0  0  0  0
    7.1396    0.1586    0.0000 C   0  0  0  0  0  0  0  0  0  0  0  0
    6.7521    1.6077    0.0000 C   0  0  0  0  0  0  0  0  0  0  0  0
    7.8133    2.6678    0.0000 N   0  0  0  0  0  0  0  0  0  0  0  0
    9.2620    2.2788    0.0000 C   0  0  0  0  0  0  0  0  0  0  0  0
   10.7107    1.8898    0.0000 S   0  0  0  0  0  0  0  0  0  0  0  0
    5.3034    1.9967    0.0000 C   0  0  0  0  0  0  0  0  0  0  0  0
    4.2422    0.9366    0.0000 C   0  0  0  0  0  0  0  0  0  0  0  0
    4.6297   -0.5125    0.0000 C   0  0  0  0  0  0  0  0  0  0  0  0
    3.8120   -1.7700    0.0000 N   0  0  0  0  0  0  0  0  0  0  0  0
    2.3140   -1.8477    0.0000 C   0  0  0  0  0  0  0  0  0  0  0  0
    1.4977   -0.5893    0.0000 C   0  0  0  0  0  0  0  0  0  0  0  0
   -0.0002   -0.6670    0.0000 C   0  0  0  0  0  0  0  0  0  0  0  0
   -0.8165    0.5914    0.0000 C   0  0  0  0  0  0  0  0  0  0  0  0
   -2.3145    0.5137    0.0000 N   0  0  0  0  0  0  0  0  0  0  0  0
   -3.1308    1.7722    0.0000 C   0  0  0  0  0  0  0  0  0  0  0  0
   -4.6288    1.6945    0.0000 C   0  0  0  0  0  0  0  0  0  0  0  0
   -5.3105    0.3583    0.0000 N   0  0  0  0  0  0  0  0  0  0  0  0
   -6.8085    0.2806    0.0000 C   0  0  0  0  0  0  0  0  0  0  0  0
   -7.6248    1.5390    0.0000 C   0  0  0  0  0  0  0  0  0  0  0  0
   -9.1227    1.4613    0.0000 C   0  0  0  0  0  0  0  0  0  0  0  0
   -9.8044    0.1252    0.0000 C   0  0  0  0  0  0  0  0  0  0  0  0
  -11.3024    0.0475    0.0000 F   0  0  0  0  0  0  0  0  0  0  0  0
   -8.9882   -1.1333    0.0000 C   0  0  0  0  0  0  0  0  0  0  0  0
   -7.4902   -1.0555    0.0000 C   0  0  0  0  0  0  0  0  0  0  0  0
   -4.4942   -0.9001    0.0000 C   0  0  0  0  0  0  0  0  0  0  0  0
   -2.9962   -0.8224    0.0000 C   0  0  0  0  0  0  0  0  0  0  0  0
  1  2  2  0
  2  3  1  0
  3  4  1  0
  4  5  2  0
  5  6  1  0
  6  7  1  0
  7  8  2  0
  8  9  2  0
  6 10  2  0
 10 11  1  0
 11 12  2  0
 12 13  1  0
 13 14  1  0
 14 15  1  0
 15 16  1  0
 16 17  1  0
 17 18  1  0
 18 19  1  0
 19 20  1  0
 20 21  1  0
 21 22  1  0
 22 23  2  0
 23 24  1  0
 24 25  2  0
 25 26  1  0
 25 27  1  0
 27 28  2  0
 21 29  1  0
 29 30  1  0
 13  2  1  0
 30 18  1  0
 12  4  1  0
 28 22  1  0
M  END
>  <Compound_Key>  (106) 
CM572

>  <Ki>  (106) 
14.6

>  <database>  (106) 
SRSLDB

>  <Document_ChEMBL_ID>  (106) 
10.1021/acs.jmedchem.0c02265

$$$$

     RDKit          2D

 36 40  0  0  0  0  0  0  0  0999 V2000
  -12.0000   -2.6702    0.0000 C   0  0  0  0  0  0  0  0  0  0  0  0
  -10.5000   -2.6702    0.0000 O   0  0  0  0  0  0  0  0  0  0  0  0
   -9.7500   -1.3712    0.0000 C   0  0  0  0  0  0  0  0  0  0  0  0
  -10.5000   -0.0722    0.0000 C   0  0  0  0  0  0  0  0  0  0  0  0
   -9.7500    1.2269    0.0000 C   0  0  0  0  0  0  0  0  0  0  0  0
   -8.2500    1.2269    0.0000 C   0  0  0  0  0  0  0  0  0  0  0  0
   -7.5000   -0.0722    0.0000 C   0  0  0  0  0  0  0  0  0  0  0  0
   -8.2500   -1.3712    0.0000 C   0  0  0  0  0  0  0  0  0  0  0  0
   -7.5000   -2.6702    0.0000 C   0  0  0  0  0  0  0  0  0  0  0  0
   -6.0000   -2.6702    0.0000 C   0  0  0  0  0  0  0  0  0  0  0  0
   -5.2500   -1.3712    0.0000 C   0  0  0  0  0  0  0  0  0  0  0  0
   -6.0000   -0.0722    0.0000 C   0  0  0  0  0  0  0  0  0  0  0  0
   -5.2500    1.2269    0.0000 C   0  0  0  0  0  0  0  0  0  0  0  0
   -3.7500    1.2269    0.0000 C   0  0  0  0  0  0  0  0  0  0  0  0
   -3.0000    2.5259    0.0000 C   0  0  0  0  0  0  0  0  0  0  0  0
   -1.5000    2.5259    0.0000 N   0  0  0  0  0  0  0  0  0  0  0  0
   -0.7500    1.2269    0.0000 C   0  0  0  0  0  0  0  0  0  0  0  0
    0.7500    1.2269    0.0000 C   0  0  0  0  0  0  0  0  0  0  0  0
    1.5000    2.5259    0.0000 N   0  0  0  0  0  0  0  0  0  0  0  0
    3.0000    2.5259    0.0000 C   0  0  0  0  0  0  0  0  0  0  0  0
    3.7500    1.2269    0.0000 C   0  0  0  0  0  0  0  0  0  0  0  0
    5.2500    1.2269    0.0000 C   0  0  0  0  0  0  0  0  0  0  0  0
    6.0000   -0.0722    0.0000 C   0  0  0  0  0  0  0  0  0  0  0  0
    5.2500   -1.3712    0.0000 C   0  0  0  0  0  0  0  0  0  0  0  0
    6.0000   -2.6702    0.0000 C   0  0  0  0  0  0  0  0  0  0  0  0
    7.5000   -2.6702    0.0000 C   0  0  0  0  0  0  0  0  0  0  0  0
    8.2500   -1.3712    0.0000 C   0  0  0  0  0  0  0  0  0  0  0  0
    9.7500   -1.3712    0.0000 C   0  0  0  0  0  0  0  0  0  0  0  0
   10.5000   -2.6702    0.0000 O   0  0  0  0  0  0  0  0  0  0  0  0
   12.0000   -2.6702    0.0000 C   0  0  0  0  0  0  0  0  0  0  0  0
   10.5000   -0.0722    0.0000 C   0  0  0  0  0  0  0  0  0  0  0  0
    9.7500    1.2269    0.0000 C   0  0  0  0  0  0  0  0  0  0  0  0
    8.2500    1.2269    0.0000 C   0  0  0  0  0  0  0  0  0  0  0  0
    7.5000   -0.0722    0.0000 C   0  0  0  0  0  0  0  0  0  0  0  0
    0.7500    3.8249    0.0000 C   0  0  0  0  0  0  0  0  0  0  0  0
   -0.7500    3.8249    0.0000 C   0  0  0  0  0  0  0  0  0  0  0  0
  1  2  1  0
  2  3  1  0
  3  4  2  0
  4  5  1  0
  5  6  2  0
  6  7  1  0
  7  8  2  0
  8  9  1  0
  9 10  1  0
 10 11  1  0
 11 12  1  0
 12 13  1  0
 13 14  1  0
 14 15  1  0
 15 16  1  0
 16 17  1  0
 17 18  1  0
 18 19  1  0
 19 20  1  0
 20 21  1  0
 21 22  1  0
 22 23  1  0
 23 24  1  0
 24 25  1  0
 25 26  1  0
 26 27  1  0
 27 28  2  0
 28 29  1  0
 29 30  1  0
 28 31  1  0
 31 32  2  0
 32 33  1  0
 33 34  2  0
 19 35  1  0
 35 36  1  0
  8  3  1  0
 36 16  1  0
 12  7  1  0
 34 23  1  0
 34 27  1  0
M  END
>  <ChemBL_ID>  (107) 
CHEMBL575253

>  <Ki>  (107) 
120.0

>  <database>  (107) 
SRSLDB

$$$$

     RDKit          2D

 34 37  0  0  0  0  0  0  0  0999 V2000
   -5.6621   -3.2955    0.0000 O   0  0  0  0  0  0  0  0  0  0  0  0
   -5.7898   -1.8010    0.0000 C   0  0  0  0  0  0  0  0  0  0  0  0
   -4.5593   -0.9431    0.0000 C   0  0  0  0  0  0  0  0  0  0  0  0
   -3.2011   -1.5798    0.0000 C   0  0  0  0  0  0  0  0  0  0  0  0
   -1.9707   -0.7219    0.0000 C   0  0  0  0  0  0  0  0  0  0  0  0
   -2.0984    0.7727    0.0000 C   0  0  0  0  0  0  0  0  0  0  0  0
   -0.8679    1.6306    0.0000 C   0  0  0  0  0  0  0  0  0  0  0  0
    0.4903    0.9939    0.0000 N   0  0  0  0  0  0  0  0  0  0  0  0
    1.7207    1.8518    0.0000 C   0  0  0  0  0  0  0  0  0  0  0  0
    3.0789    1.2151    0.0000 C   0  0  0  0  0  0  0  0  0  0  0  0
    4.3094    2.0730    0.0000 C   0  0  0  0  0  0  0  0  0  0  0  0
    5.6675    1.4363    0.0000 N   0  0  0  0  0  0  0  0  0  0  0  0
    5.7953   -0.0583    0.0000 C   0  0  0  0  0  0  0  0  0  0  0  0
    7.1534   -0.6949    0.0000 C   0  0  0  0  0  0  0  0  0  0  0  0
    8.3839    0.1629    0.0000 N   0  0  0  0  0  0  0  0  0  0  0  0
    9.7421   -0.4737    0.0000 C   0  0  0  0  0  0  0  0  0  0  0  0
    9.8698   -1.9683    0.0000 C   0  0  0  0  0  0  0  0  0  0  0  0
   11.2280   -2.6050    0.0000 C   0  0  0  0  0  0  0  0  0  0  0  0
   12.4584   -1.7471    0.0000 C   0  0  0  0  0  0  0  0  0  0  0  0
   12.3307   -0.2525    0.0000 C   0  0  0  0  0  0  0  0  0  0  0  0
   10.9725    0.3841    0.0000 C   0  0  0  0  0  0  0  0  0  0  0  0
    8.2562    1.6575    0.0000 C   0  0  0  0  0  0  0  0  0  0  0  0
    6.8980    2.2942    0.0000 C   0  0  0  0  0  0  0  0  0  0  0  0
   -3.4566    1.4094    0.0000 C   0  0  0  0  0  0  0  0  0  0  0  0
   -4.6870    0.5515    0.0000 C   0  0  0  0  0  0  0  0  0  0  0  0
   -7.1480   -1.1643    0.0000 C   0  0  0  0  0  0  0  0  0  0  0  0
   -7.2757    0.3303    0.0000 C   0  0  0  0  0  0  0  0  0  0  0  0
   -8.6338    0.9669    0.0000 C   0  0  0  0  0  0  0  0  0  0  0  0
   -9.8643    0.1091    0.0000 C   0  0  0  0  0  0  0  0  0  0  0  0
  -11.2225    0.7457    0.0000 N   0  0  0  0  0  4  0  0  0  0  0  0
  -12.4529   -0.1121    0.0000 O   0  0  0  0  0  0  0  0  0  0  0  0
  -11.3502    2.2403    0.0000 O   0  0  0  0  0  1  0  0  0  0  0  0
   -9.7366   -1.3855    0.0000 C   0  0  0  0  0  0  0  0  0  0  0  0
   -8.3784   -2.0222    0.0000 C   0  0  0  0  0  0  0  0  0  0  0  0
  1  2  2  0
  2  3  1  0
  3  4  2  0
  4  5  1  0
  5  6  2  0
  6  7  1  0
  7  8  1  0
  8  9  1  0
  9 10  1  0
 10 11  1  0
 11 12  1  0
 12 13  1  0
 13 14  1  0
 14 15  1  0
 15 16  1  0
 16 17  1  0
 17 18  1  0
 18 19  1  0
 19 20  1  0
 20 21  1  0
 15 22  1  0
 22 23  1  0
  6 24  1  0
 24 25  2  0
  2 26  1  0
 26 27  2  0
 27 28  1  0
 28 29  2  0
 29 30  1  0
 30 31  2  0
 30 32  1  0
 29 33  1  0
 33 34  2  0
 25  3  1  0
 34 26  1  0
 23 12  1  0
 21 16  1  0
M  CHG  2  30   1  32  -1
M  END
>  <Ki>  (108) 
33.31

>  <database>  (108) 
SRSLDB

$$$$

     RDKit          2D

 34 36  0  0  0  0  0  0  0  0999 V2000
  -10.8309    0.8097    0.0000 C   0  0  0  0  0  0  0  0  0  0  0  0
   -9.9566   -0.4091    0.0000 O   0  0  0  0  0  0  0  0  0  0  0  0
   -8.4639   -0.2615    0.0000 C   0  0  0  0  0  0  0  0  0  0  0  0
   -7.8454    1.1051    0.0000 C   0  0  0  0  0  0  0  0  0  0  0  0
   -6.3527    1.2528    0.0000 C   0  0  0  0  0  0  0  0  0  0  0  0
   -5.4785    0.0339    0.0000 C   0  0  0  0  0  0  0  0  0  0  0  0
   -6.0969   -1.3327    0.0000 C   0  0  0  0  0  0  0  0  0  0  0  0
   -7.5897   -1.4804    0.0000 C   0  0  0  0  0  0  0  0  0  0  0  0
   -8.2081   -2.8469    0.0000 O   0  0  0  0  0  0  0  0  0  0  0  0
   -7.3339   -4.0658    0.0000 C   0  0  0  0  0  0  0  0  0  0  0  0
   -3.9858    0.1816    0.0000 C   0  0  0  0  0  0  0  0  0  0  0  0
   -3.3673    1.5481    0.0000 N   0  0  0  0  0  0  0  0  0  0  0  0
   -1.8746    1.6958    0.0000 C   0  0  0  0  0  0  0  0  0  0  0  0
   -1.0003    0.4769    0.0000 C   0  0  0  0  0  0  0  0  0  0  0  0
    0.4924    0.6246    0.0000 C   0  0  0  0  0  0  0  0  0  0  0  0
    1.3666   -0.5943    0.0000 C   0  0  0  0  0  0  0  0  0  0  0  0
    2.8593   -0.4466    0.0000 N   0  0  0  0  0  0  0  0  0  0  0  0
    3.7336   -1.6655    0.0000 C   0  0  0  0  0  0  0  0  0  0  0  0
    3.1151   -3.0320    0.0000 O   0  0  0  0  0  0  0  0  0  0  0  0
    5.2263   -1.5178    0.0000 C   0  0  0  0  0  0  0  0  0  0  0  0
    6.1005   -2.7367    0.0000 C   0  0  0  0  0  0  0  0  0  0  0  0
    7.5933   -2.5890    0.0000 C   0  0  0  0  0  0  0  0  0  0  0  0
    8.4675   -3.8079    0.0000 Br  0  0  0  0  0  0  0  0  0  0  0  0
    8.2117   -1.2224    0.0000 C   0  0  0  0  0  0  0  0  0  0  0  0
    7.3375   -0.0036    0.0000 C   0  0  0  0  0  0  0  0  0  0  0  0
    7.9559    1.3630    0.0000 O   0  0  0  0  0  0  0  0  0  0  0  0
    9.4486    1.5107    0.0000 C   0  0  0  0  0  0  0  0  0  0  0  0
    5.8448   -0.1512    0.0000 C   0  0  0  0  0  0  0  0  0  0  0  0
    4.9705    1.0677    0.0000 O   0  0  0  0  0  0  0  0  0  0  0  0
    5.5890    2.4342    0.0000 C   0  0  0  0  0  0  0  0  0  0  0  0
    4.7147    3.6531    0.0000 C   0  0  0  0  0  0  0  0  0  0  0  0
    5.3332    5.0197    0.0000 F   0  0  0  0  0  0  0  0  0  0  0  0
   -4.2416    2.7670    0.0000 C   0  0  0  0  0  0  0  0  0  0  0  0
   -5.7343    2.6193    0.0000 C   0  0  0  0  0  0  0  0  0  0  0  0
  1  2  1  0
  2  3  1  0
  3  4  2  0
  4  5  1  0
  5  6  2  0
  6  7  1  0
  7  8  2  0
  8  9  1  0
  9 10  1  0
  6 11  1  0
 11 12  1  0
 12 13  1  0
 13 14  1  0
 14 15  1  0
 15 16  1  0
 16 17  1  0
 17 18  1  0
 18 19  2  0
 18 20  1  0
 20 21  2  0
 21 22  1  0
 22 23  1  0
 22 24  2  0
 24 25  1  0
 25 26  1  0
 26 27  1  0
 25 28  2  0
 28 29  1  0
 29 30  1  0
 30 31  1  0
 31 32  1  0
 12 33  1  0
 33 34  1  0
  8  3  1  0
 28 20  1  0
 34  5  1  0
M  END
>  <ChemBL_ID>  (109) 
CHEMBL226538

>  <Ki>  (109) 
386.0

>  <database>  (109) 
SRSLDB

$$$$

     RDKit          2D

 35 39  0  0  0  0  0  0  0  0999 V2000
   -9.6362   -2.4948    0.0000 C   0  0  0  0  0  0  0  0  0  0  0  0
   -8.2128   -2.9679    0.0000 O   0  0  0  0  0  0  0  0  0  0  0  0
   -7.0913   -1.9718    0.0000 C   0  0  0  0  0  0  0  0  0  0  0  0
   -7.3933   -0.5025    0.0000 C   0  0  0  0  0  0  0  0  0  0  0  0
   -6.2718    0.4937    0.0000 C   0  0  0  0  0  0  0  0  0  0  0  0
   -4.8484    0.0205    0.0000 C   0  0  0  0  0  0  0  0  0  0  0  0
   -4.5465   -1.4488    0.0000 C   0  0  0  0  0  0  0  0  0  0  0  0
   -5.6679   -2.4449    0.0000 C   0  0  0  0  0  0  0  0  0  0  0  0
   -5.3660   -3.9142    0.0000 O   0  0  0  0  0  0  0  0  0  0  0  0
   -3.9426   -4.3874    0.0000 C   0  0  0  0  0  0  0  0  0  0  0  0
   -3.7269    1.0167    0.0000 C   0  0  0  0  0  0  0  0  0  0  0  0
   -4.0289    2.4860    0.0000 N   0  0  0  0  0  0  0  0  0  0  0  0
   -2.9074    3.4821    0.0000 C   0  0  0  0  0  0  0  0  0  0  0  0
   -1.4840    3.0089    0.0000 C   0  0  0  0  0  0  0  0  0  0  0  0
   -0.3625    4.0051    0.0000 C   0  0  0  0  0  0  0  0  0  0  0  0
    1.0609    3.5319    0.0000 C   0  0  0  0  0  0  0  0  0  0  0  0
    1.3629    2.0626    0.0000 C   0  0  0  0  0  0  0  0  0  0  0  0
    2.7863    1.5895    0.0000 C   0  0  0  0  0  0  0  0  0  0  0  0
    3.9078    2.5856    0.0000 N   0  0  0  0  0  0  0  0  0  0  0  0
    5.3312    2.1125    0.0000 C   0  0  0  0  0  0  0  0  0  0  0  0
    6.4526    3.1086    0.0000 O   0  0  0  0  0  0  0  0  0  0  0  0
    5.6331    0.6432    0.0000 C   0  0  0  0  0  0  0  0  0  0  0  0
    4.6219   -0.4647    0.0000 C   0  0  0  0  0  0  0  0  0  0  0  0
    5.3631   -1.7688    0.0000 C   0  0  0  0  0  0  0  0  0  0  0  0
    4.8900   -3.1922    0.0000 C   0  0  0  0  0  0  0  0  0  0  0  0
    5.8861   -4.3137    0.0000 C   0  0  0  0  0  0  0  0  0  0  0  0
    5.4130   -5.7371    0.0000 Br  0  0  0  0  0  0  0  0  0  0  0  0
    7.3554   -4.0118    0.0000 C   0  0  0  0  0  0  0  0  0  0  0  0
    7.8286   -2.5883    0.0000 C   0  0  0  0  0  0  0  0  0  0  0  0
    6.8324   -1.4669    0.0000 C   0  0  0  0  0  0  0  0  0  0  0  0
    6.9993    0.0238    0.0000 O   0  0  0  0  0  0  0  0  0  0  0  0
    3.6058    4.0549    0.0000 C   0  0  0  0  0  0  0  0  0  0  0  0
    2.1824    4.5281    0.0000 C   0  0  0  0  0  0  0  0  0  0  0  0
   -5.4523    2.9591    0.0000 C   0  0  0  0  0  0  0  0  0  0  0  0
   -6.5738    1.9630    0.0000 C   0  0  0  0  0  0  0  0  0  0  0  0
  1  2  1  0
  2  3  1  0
  3  4  2  0
  4  5  1  0
  5  6  2  0
  6  7  1  0
  7  8  2  0
  8  9  1  0
  9 10  1  0
  6 11  1  0
 11 12  1  0
 12 13  1  0
 13 14  1  0
 14 15  1  0
 15 16  1  0
 16 17  1  0
 17 18  1  0
 18 19  1  0
 19 20  1  0
 20 21  2  0
 20 22  1  0
 22 23  2  0
 23 24  1  0
 24 25  2  0
 25 26  1  0
 26 27  1  0
 26 28  2  0
 28 29  1  0
 29 30  2  0
 30 31  1  0
 19 32  1  0
 32 33  1  0
 12 34  1  0
 34 35  1  0
  8  3  1  0
 33 16  1  0
 35  5  1  0
 31 22  1  0
 30 24  1  0
M  END
>  <Ki>  (110) 
5.3

>  <database>  (110) 
SRSLDB

$$$$

     RDKit          2D

 23 28  0  0  0  0  0  0  0  0999 V2000
    0.4415   -2.6573    0.0000 C   0  0  0  0  0  0  0  0  0  0  0  0
    1.0075   -1.2682    0.0000 N   0  0  0  0  0  0  0  0  0  0  0  0
    0.0875   -0.0835    0.0000 C   0  0  0  0  0  0  0  0  0  0  0  0
   -1.3985   -0.2878    0.0000 C   0  0  0  0  0  0  0  0  0  0  0  0
   -2.3185    0.8969    0.0000 C   0  0  0  0  0  0  0  0  0  0  0  0
   -3.8045    0.6925    0.0000 C   0  0  0  0  0  0  0  0  0  0  0  0
   -4.7246    1.8772    0.0000 C   0  0  0  0  0  0  0  0  0  0  0  0
   -6.2106    1.6728    0.0000 C   0  0  0  0  0  0  0  0  0  0  0  0
   -6.7766    0.2837    0.0000 C   0  0  0  0  0  0  0  0  0  0  0  0
   -5.8565   -0.9010    0.0000 C   0  0  0  0  0  0  0  0  0  0  0  0
   -6.4225   -2.2901    0.0000 F   0  0  0  0  0  0  0  0  0  0  0  0
   -4.3705   -0.6966    0.0000 C   0  0  0  0  0  0  0  0  0  0  0  0
    2.4935   -1.0638    0.0000 C   0  0  0  0  0  0  0  0  0  0  0  0
    3.5323   -2.1459    0.0000 C   0  0  0  0  0  0  0  0  0  0  0  0
    3.2005   -0.6830    0.0000 C   0  0  0  0  0  0  0  0  0  0  0  0
    2.0722    0.3054    0.0000 C   0  0  0  0  0  0  0  0  0  0  0  0
    2.6636    1.6839    0.0000 C   0  0  0  0  0  0  0  0  0  0  0  0
    4.1574    1.5474    0.0000 C   0  0  0  0  0  0  0  0  0  0  0  0
    4.4892    0.0846    0.0000 C   0  0  0  0  0  0  0  0  0  0  0  0
    5.6175   -0.9038    0.0000 C   0  0  0  0  0  0  0  0  0  0  0  0
    5.0261   -2.2823    0.0000 C   0  0  0  0  0  0  0  0  0  0  0  0
    4.2939    3.0412    0.0000 C   0  0  0  0  0  0  0  0  0  0  0  0
    2.8001    3.1777    0.0000 C   0  0  0  0  0  0  0  0  0  0  0  0
  1  2  1  0
  2  3  1  0
  3  4  1  0
  4  5  1  0
  5  6  1  0
  6  7  2  0
  7  8  1  0
  8  9  2  0
  9 10  1  0
 10 11  1  0
 10 12  2  0
  2 13  1  0
 13 14  1  0
 14 15  1  0
 15 16  1  0
 16 17  1  0
 17 18  1  0
 18 19  1  0
 19 20  1  0
 20 21  1  0
 21 22  1  0
 22 23  1  0
 12  6  1  0
 23 13  1  0
 21 14  1  0
 19 15  1  0
 23 17  1  0
 22 18  1  0
M  END
>  <ChemBL_ID>  (111) 
CHEMBL2432060

>  <Ki>  (111) 
11.0

>  <database>  (111) 
SRSLDB

$$$$

     RDKit          2D

 33 37  0  0  0  0  0  0  0  0999 V2000
   -8.3623   -2.0483    0.0000 C   0  0  0  0  0  0  0  0  0  0  0  0
   -6.9500   -2.5537    0.0000 O   0  0  0  0  0  0  0  0  0  0  0  0
   -5.8061   -1.5834    0.0000 C   0  0  0  0  0  0  0  0  0  0  0  0
   -6.0746   -0.1076    0.0000 C   0  0  0  0  0  0  0  0  0  0  0  0
   -4.9307    0.8628    0.0000 C   0  0  0  0  0  0  0  0  0  0  0  0
   -3.5184    0.3574    0.0000 C   0  0  0  0  0  0  0  0  0  0  0  0
   -3.2500   -1.1184    0.0000 C   0  0  0  0  0  0  0  0  0  0  0  0
   -4.3938   -2.0888    0.0000 C   0  0  0  0  0  0  0  0  0  0  0  0
   -4.1254   -3.5646    0.0000 O   0  0  0  0  0  0  0  0  0  0  0  0
   -2.7131   -4.0700    0.0000 C   0  0  0  0  0  0  0  0  0  0  0  0
   -2.3746    1.3277    0.0000 C   0  0  0  0  0  0  0  0  0  0  0  0
   -2.6430    2.8035    0.0000 N   0  0  0  0  0  0  0  0  0  0  0  0
   -1.4992    3.7739    0.0000 C   0  0  0  0  0  0  0  0  0  0  0  0
   -0.0869    3.2685    0.0000 C   0  0  0  0  0  0  0  0  0  0  0  0
    1.1521    4.1139    0.0000 C   0  0  0  0  0  0  0  0  0  0  0  0
    2.3391    3.1968    0.0000 C   0  0  0  0  0  0  0  0  0  0  0  0
    1.8337    1.7846    0.0000 C   0  0  0  0  0  0  0  0  0  0  0  0
    2.6792    0.5455    0.0000 C   0  0  0  0  0  0  0  0  0  0  0  0
    2.0289   -0.8062    0.0000 C   0  0  0  0  0  0  0  0  0  0  0  0
    2.8744   -2.0452    0.0000 C   0  0  0  0  0  0  0  0  0  0  0  0
    2.2241   -3.3969    0.0000 Br  0  0  0  0  0  0  0  0  0  0  0  0
    4.3701   -1.9325    0.0000 C   0  0  0  0  0  0  0  0  0  0  0  0
    5.2156   -3.1715    0.0000 C   0  0  0  0  0  0  0  0  0  0  0  0
    6.7114   -3.0588    0.0000 C   0  0  0  0  0  0  0  0  0  0  0  0
    7.3617   -1.7071    0.0000 C   0  0  0  0  0  0  0  0  0  0  0  0
    6.5162   -0.4681    0.0000 C   0  0  0  0  0  0  0  0  0  0  0  0
    5.0204   -0.5808    0.0000 C   0  0  0  0  0  0  0  0  0  0  0  0
    4.1749    0.6582    0.0000 C   0  0  0  0  0  0  0  0  0  0  0  0
    4.8252    2.0100    0.0000 O   0  0  0  0  0  0  0  0  0  0  0  0
    6.3210    2.1227    0.0000 C   0  0  0  0  0  0  0  0  0  0  0  0
    0.3344    1.8288    0.0000 N   0  0  0  0  0  0  0  0  0  0  0  0
   -4.0553    3.3089    0.0000 C   0  0  0  0  0  0  0  0  0  0  0  0
   -5.1991    2.3386    0.0000 C   0  0  0  0  0  0  0  0  0  0  0  0
  1  2  1  0
  2  3  1  0
  3  4  2  0
  4  5  1  0
  5  6  2  0
  6  7  1  0
  7  8  2  0
  8  9  1  0
  9 10  1  0
  6 11  1  0
 11 12  1  0
 12 13  1  0
 13 14  1  0
 14 15  2  0
 15 16  1  0
 16 17  2  0
 17 18  1  0
 18 19  2  0
 19 20  1  0
 20 21  1  0
 20 22  2  0
 22 23  1  0
 23 24  2  0
 24 25  1  0
 25 26  2  0
 26 27  1  0
 27 28  2  0
 28 29  1  0
 29 30  1  0
 17 31  1  0
 12 32  1  0
 32 33  1  0
  8  3  1  0
 31 14  1  0
 33  5  1  0
 28 18  1  0
 27 22  1  0
M  END
>  <Ki>  (112) 
26.0

>  <database>  (112) 
SRSLDB

$$$$

     RDKit          2D

 31 34  0  0  0  0  0  0  0  0999 V2000
   -5.1854   -3.3829    0.0000 C   0  0  0  0  0  0  0  0  0  0  0  0
   -3.8386   -2.7225    0.0000 O   0  0  0  0  0  0  0  0  0  0  0  0
   -3.7371   -1.2259    0.0000 C   0  0  0  0  0  0  0  0  0  0  0  0
   -4.9825   -0.3898    0.0000 C   0  0  0  0  0  0  0  0  0  0  0  0
   -4.8811    1.1068    0.0000 C   0  0  0  0  0  0  0  0  0  0  0  0
   -3.5343    1.7672    0.0000 C   0  0  0  0  0  0  0  0  0  0  0  0
   -3.4328    3.2638    0.0000 C   0  0  0  0  0  0  0  0  0  0  0  0
   -2.2889    0.9311    0.0000 C   0  0  0  0  0  0  0  0  0  0  0  0
   -2.3904   -0.5655    0.0000 C   0  0  0  0  0  0  0  0  0  0  0  0
   -1.1450   -1.4016    0.0000 N   0  0  0  0  0  0  0  0  0  0  0  0
    0.2018   -0.7411    0.0000 C   0  0  0  0  0  0  0  0  0  0  0  0
    0.3032    0.7554    0.0000 O   0  0  0  0  0  0  0  0  0  0  0  0
    1.4471   -1.5773    0.0000 O   0  0  0  0  0  0  0  0  0  0  0  0
    2.7939   -0.9168    0.0000 C   0  0  0  0  0  0  0  0  0  0  0  0
    4.0392   -1.7530    0.0000 C   0  0  0  0  0  0  0  0  0  0  0  0
    5.3860   -1.0925    0.0000 C   0  0  0  0  0  0  0  0  0  0  0  0
    6.7328   -0.4321    0.0000 C   0  0  0  0  0  0  0  0  0  0  0  0
    6.8342    1.0645    0.0000 C   0  0  0  0  0  0  0  0  0  0  0  0
    5.5889    1.9006    0.0000 C   0  0  0  0  0  0  0  0  0  0  0  0
    4.2421    1.2402    0.0000 C   0  0  0  0  0  0  0  0  0  0  0  0
    2.8953    0.5797    0.0000 C   0  0  0  0  0  0  0  0  0  0  0  0
    4.1407   -0.2564    0.0000 N   0  0  0  0  0  0  0  0  0  0  0  0
    2.7939   -0.9168    0.0000 C   0  0  0  0  0  0  0  0  0  0  0  0
    1.5486   -0.0807    0.0000 C   0  0  0  0  0  0  0  0  0  0  0  0
    0.2018   -0.7411    0.0000 C   0  0  0  0  0  0  0  0  0  0  0  0
   -1.0436    0.0950    0.0000 C   0  0  0  0  0  0  0  0  0  0  0  0
   -0.9421    1.5915    0.0000 C   0  0  0  0  0  0  0  0  0  0  0  0
   -2.1875    2.4277    0.0000 C   0  0  0  0  0  0  0  0  0  0  0  0
   -3.5343    1.7672    0.0000 C   0  0  0  0  0  0  0  0  0  0  0  0
   -3.6357    0.2707    0.0000 C   0  0  0  0  0  0  0  0  0  0  0  0
   -2.3904   -0.5655    0.0000 C   0  0  0  0  0  0  0  0  0  0  0  0
  1  2  1  0
  2  3  1  0
  3  4  2  0
  4  5  1  0
  5  6  2  0
  6  7  1  0
  6  8  1  0
  8  9  2  0
  9 10  1  0
 10 11  1  0
 11 12  2  0
 11 13  1  0
 13 14  1  0
 14 15  1  0
 15 16  1  0
 16 17  1  0
 17 18  1  0
 18 19  1  0
 19 20  1  0
 20 21  1  0
 20 22  1  0
 22 23  1  0
 23 24  1  0
 24 25  1  0
 25 26  1  0
 26 27  2  0
 27 28  1  0
 28 29  2  0
 29 30  1  0
 30 31  2  0
  9  3  1  0
 21 14  1  0
 31 26  1  0
 22 16  1  0
M  END
>  <Ki>  (113) 
2.0

>  <database>  (113) 
SRSLDB

$$$$

     RDKit          2D

 25 27  0  0  0  0  0  0  0  0999 V2000
   -3.1593    2.0789    0.0000 O   0  0  0  0  0  0  0  0  0  0  0  0
   -3.5958    0.6438    0.0000 C   0  0  0  0  0  0  0  0  0  0  0  0
   -2.5712   -0.4518    0.0000 C   0  0  0  0  0  0  0  0  0  0  0  0
   -1.1101   -0.1123    0.0000 C   0  0  0  0  0  0  0  0  0  0  0  0
   -0.0856   -1.2078    0.0000 C   0  0  0  0  0  0  0  0  0  0  0  0
    1.3755   -0.8683    0.0000 N   0  0  0  0  0  0  0  0  0  0  0  0
    2.3154   -2.0373    0.0000 C   0  0  0  0  0  0  0  0  0  0  0  0
    3.8153   -2.0314    0.0000 C   0  0  0  0  0  0  0  0  0  0  0  0
    4.7460   -0.8550    0.0000 C   0  0  0  0  0  0  0  0  0  0  0  0
    6.1810   -1.2915    0.0000 C   0  0  0  0  0  0  0  0  0  0  0  0
    7.2766   -0.2669    0.0000 C   0  0  0  0  0  0  0  0  0  0  0  0
    8.7117   -0.7034    0.0000 O   0  0  0  0  0  0  0  0  0  0  0  0
    6.9371    1.1941    0.0000 C   0  0  0  0  0  0  0  0  0  0  0  0
    5.5020    1.6306    0.0000 C   0  0  0  0  0  0  0  0  0  0  0  0
    4.4064    0.6060    0.0000 C   0  0  0  0  0  0  0  0  0  0  0  0
    3.0524    1.2515    0.0000 C   0  0  0  0  0  0  0  0  0  0  0  0
    3.0465    2.7515    0.0000 O   0  0  0  0  0  0  0  0  0  0  0  0
    1.7035    0.5954    0.0000 C   0  0  0  0  0  0  0  0  0  0  0  0
   -5.0568    0.3042    0.0000 C   0  0  0  0  0  0  0  0  0  0  0  0
   -6.0814    1.3998    0.0000 C   0  0  0  0  0  0  0  0  0  0  0  0
   -7.5425    1.0603    0.0000 C   0  0  0  0  0  0  0  0  0  0  0  0
   -7.9790   -0.3748    0.0000 C   0  0  0  0  0  0  0  0  0  0  0  0
   -9.4400   -0.7143    0.0000 F   0  0  0  0  0  0  0  0  0  0  0  0
   -6.9544   -1.4704    0.0000 C   0  0  0  0  0  0  0  0  0  0  0  0
   -5.4933   -1.1308    0.0000 C   0  0  0  0  0  0  0  0  0  0  0  0
  1  2  2  0
  2  3  1  0
  3  4  1  0
  4  5  1  0
  5  6  1  0
  6  7  1  0
  7  8  1  0
  8  9  1  0
  9 10  2  0
 10 11  1  0
 11 12  1  0
 11 13  2  0
 13 14  1  0
 14 15  2  0
 15 16  1  0
 16 17  1  0
 16 18  1  0
  2 19  1  0
 19 20  2  0
 20 21  1  0
 21 22  2  0
 22 23  1  0
 22 24  1  0
 24 25  2  0
 18  6  1  0
 25 19  1  0
 15  9  1  0
M  END
>  <ChemBL_ID>  (114) 
CHEMBL1289955

>  <Ki>  (114) 
33.0

>  <database>  (114) 
SRSLDB

$$$$

     RDKit          2D

 35 38  0  0  0  0  0  0  0  0999 V2000
   -3.7260   -3.6711    0.0000 C   0  0  0  0  0  0  0  0  0  0  0  0
   -2.4240   -2.9262    0.0000 O   0  0  0  0  0  0  0  0  0  0  0  0
   -2.4181   -1.4262    0.0000 C   0  0  0  0  0  0  0  0  0  0  0  0
   -3.7142   -0.6712    0.0000 C   0  0  0  0  0  0  0  0  0  0  0  0
   -3.7083    0.8288    0.0000 C   0  0  0  0  0  0  0  0  0  0  0  0
   -2.4063    1.5737    0.0000 C   0  0  0  0  0  0  0  0  0  0  0  0
   -2.4005    3.0737    0.0000 C   0  0  0  0  0  0  0  0  0  0  0  0
   -1.1103    0.8186    0.0000 C   0  0  0  0  0  0  0  0  0  0  0  0
   -1.1161   -0.6813    0.0000 C   0  0  0  0  0  0  0  0  0  0  0  0
    0.1799   -1.4364    0.0000 N   0  0  0  0  0  0  0  0  0  0  0  0
    1.4819   -0.6915    0.0000 C   0  0  0  0  0  0  0  0  0  0  0  0
    1.4878    0.8085    0.0000 O   0  0  0  0  0  0  0  0  0  0  0  0
    2.7780   -1.4466    0.0000 O   0  0  0  0  0  0  0  0  0  0  0  0
    4.0800   -0.7017    0.0000 C   0  0  0  0  0  0  0  0  0  0  0  0
    5.3761   -1.4568    0.0000 C   0  0  0  0  0  0  0  0  0  0  0  0
    6.6780   -0.7119    0.0000 C   0  0  0  0  0  0  0  0  0  0  0  0
    7.9800    0.0330    0.0000 C   0  0  0  0  0  0  0  0  0  0  0  0
    7.9859    1.5330    0.0000 C   0  0  0  0  0  0  0  0  0  0  0  0
    6.6898    2.2881    0.0000 C   0  0  0  0  0  0  0  0  0  0  0  0
    5.3878    1.5432    0.0000 C   0  0  0  0  0  0  0  0  0  0  0  0
    4.0859    0.7983    0.0000 C   0  0  0  0  0  0  0  0  0  0  0  0
    5.3819    0.0432    0.0000 N   0  0  0  0  0  0  0  0  0  0  0  0
    4.0800   -0.7017    0.0000 C   0  0  0  0  0  0  0  0  0  0  0  0
    2.7839    0.0534    0.0000 C   0  0  0  0  0  0  0  0  0  0  0  0
    1.4819   -0.6915    0.0000 C   0  0  0  0  0  0  0  0  0  0  0  0
    0.1858    0.0636    0.0000 C   0  0  0  0  0  0  0  0  0  0  0  0
   -1.1161   -0.6813    0.0000 C   0  0  0  0  0  0  0  0  0  0  0  0
   -2.4122    0.0737    0.0000 C   0  0  0  0  0  0  0  0  0  0  0  0
   -3.7142   -0.6712    0.0000 C   0  0  0  0  0  0  0  0  0  0  0  0
   -5.0103    0.0839    0.0000 C   0  0  0  0  0  0  0  0  0  0  0  0
   -5.0044    1.5839    0.0000 C   0  0  0  0  0  0  0  0  0  0  0  0
   -6.3005    2.3390    0.0000 C   0  0  0  0  0  0  0  0  0  0  0  0
   -7.6025    1.5941    0.0000 C   0  0  0  0  0  0  0  0  0  0  0  0
   -7.6083    0.0941    0.0000 C   0  0  0  0  0  0  0  0  0  0  0  0
   -6.3123   -0.6610    0.0000 C   0  0  0  0  0  0  0  0  0  0  0  0
  1  2  1  0
  2  3  1  0
  3  4  2  0
  4  5  1  0
  5  6  2  0
  6  7  1  0
  6  8  1  0
  8  9  2  0
  9 10  1  0
 10 11  1  0
 11 12  2  0
 11 13  1  0
 13 14  1  0
 14 15  1  0
 15 16  1  0
 16 17  1  0
 17 18  1  0
 18 19  1  0
 19 20  1  0
 20 21  1  0
 20 22  1  0
 22 23  1  0
 23 24  1  0
 24 25  1  0
 25 26  1  0
 26 27  1  0
 27 28  1  0
 28 29  1  0
 29 30  1  0
 30 31  2  0
 31 32  1  0
 32 33  2  0
 33 34  1  0
 34 35  2  0
  9  3  1  0
 21 14  1  0
 35 30  1  0
 22 16  1  0
M  END
>  <Ki>  (115) 
7.6

>  <database>  (115) 
SRSLDB

$$$$

     RDKit          2D

 44 48  0  0  0  0  0  0  0  0999 V2000
   -0.8662   -3.4945    0.0000 C   0  0  0  0  0  0  0  0  0  0  0  0
    0.4483   -2.7719    0.0000 O   0  0  0  0  0  0  0  0  0  0  0  0
    0.4797   -1.2722    0.0000 C   0  0  0  0  0  0  0  0  0  0  0  0
   -0.8033   -0.4951    0.0000 C   0  0  0  0  0  0  0  0  0  0  0  0
   -0.7718    1.0045    0.0000 C   0  0  0  0  0  0  0  0  0  0  0  0
    0.5427    1.7271    0.0000 C   0  0  0  0  0  0  0  0  0  0  0  0
    0.5741    3.2268    0.0000 C   0  0  0  0  0  0  0  0  0  0  0  0
    1.8257    0.9500    0.0000 C   0  0  0  0  0  0  0  0  0  0  0  0
    1.7942   -0.5496    0.0000 C   0  0  0  0  0  0  0  0  0  0  0  0
    3.0772   -1.3267    0.0000 N   0  0  0  0  0  0  0  0  0  0  0  0
    4.3917   -0.6041    0.0000 C   0  0  0  0  0  0  0  0  0  0  0  0
    4.4232    0.8955    0.0000 O   0  0  0  0  0  0  0  0  0  0  0  0
    5.6747   -1.3812    0.0000 O   0  0  0  0  0  0  0  0  0  0  0  0
    6.9892   -0.6586    0.0000 C   0  0  0  0  0  0  0  0  0  0  0  0
    8.2722   -1.4357    0.0000 C   0  0  0  0  0  0  0  0  0  0  0  0
    9.5867   -0.7131    0.0000 C   0  0  0  0  0  0  0  0  0  0  0  0
   10.9012    0.0094    0.0000 C   0  0  0  0  0  0  0  0  0  0  0  0
   10.9327    1.5091    0.0000 C   0  0  0  0  0  0  0  0  0  0  0  0
    9.6497    2.2862    0.0000 C   0  0  0  0  0  0  0  0  0  0  0  0
    8.3352    1.5636    0.0000 C   0  0  0  0  0  0  0  0  0  0  0  0
    7.0207    0.8410    0.0000 C   0  0  0  0  0  0  0  0  0  0  0  0
    8.3037    0.0639    0.0000 N   0  0  0  0  0  0  0  0  0  0  0  0
    6.9892   -0.6586    0.0000 C   0  0  0  0  0  0  0  0  0  0  0  0
    5.7062    0.1184    0.0000 C   0  0  0  0  0  0  0  0  0  0  0  0
    4.3917   -0.6041    0.0000 C   0  0  0  0  0  0  0  0  0  0  0  0
    3.1087    0.1729    0.0000 C   0  0  0  0  0  0  0  0  0  0  0  0
    1.7942   -0.5496    0.0000 C   0  0  0  0  0  0  0  0  0  0  0  0
    0.5112    0.2274    0.0000 C   0  0  0  0  0  0  0  0  0  0  0  0
   -0.8033   -0.4951    0.0000 N   0  0  0  0  0  0  0  0  0  0  0  0
   -2.0863    0.2819    0.0000 C   0  0  0  0  0  0  0  0  0  0  0  0
   -2.0548    1.7816    0.0000 O   0  0  0  0  0  0  0  0  0  0  0  0
   -3.4008   -0.4406    0.0000 C   0  0  0  0  0  0  0  0  0  0  0  0
   -4.6838    0.3364    0.0000 C   0  0  0  0  0  0  0  0  0  0  0  0
   -5.9983   -0.3861    0.0000 C   0  0  0  0  0  0  0  0  0  0  0  0
   -7.2813    0.3909    0.0000 C   0  0  0  0  0  0  0  0  0  0  0  0
   -8.5958   -0.3316    0.0000 C   0  0  0  0  0  0  0  0  0  0  0  0
   -8.7839   -1.8198    0.0000 S   0  0  0  0  0  0  0  0  0  0  0  0
  -10.2573   -2.1008    0.0000 C   0  0  0  0  0  0  0  0  0  0  0  0
  -10.9799   -0.7863    0.0000 C   0  0  0  0  0  0  0  0  0  0  0  0
  -12.3371   -0.1476    0.0000 N   0  0  0  0  0  0  0  0  0  0  0  0
  -12.1490    1.3405    0.0000 C   0  0  0  0  0  0  0  0  0  0  0  0
  -13.2425    2.3674    0.0000 O   0  0  0  0  0  0  0  0  0  0  0  0
  -10.6756    1.6216    0.0000 N   0  0  0  0  0  0  0  0  0  0  0  0
   -9.9530    0.3071    0.0000 C   0  0  0  0  0  0  0  0  0  0  0  0
  1  2  1  0
  2  3  1  0
  3  4  2  0
  4  5  1  0
  5  6  2  0
  6  7  1  0
  6  8  1  0
  8  9  2  0
  9 10  1  0
 10 11  1  0
 11 12  2  0
 11 13  1  0
 13 14  1  0
 14 15  1  0
 15 16  1  0
 16 17  1  0
 17 18  1  0
 18 19  1  0
 19 20  1  0
 20 21  1  0
 20 22  1  0
 22 23  1  0
 23 24  1  0
 24 25  1  0
 25 26  1  0
 26 27  1  0
 27 28  1  0
 28 29  1  0
 29 30  1  0
 30 31  2  0
 30 32  1  0
 32 33  1  0
 33 34  1  0
 34 35  1  0
 36 35  1  1
 36 37  1  0
 37 38  1  0
 39 38  1  1
 39 40  1  0
 40 41  1  0
 41 42  2  0
 41 43  1  0
 44 43  1  1
  9  3  1  0
 21 14  1  0
 44 36  1  0
 22 16  1  0
 44 39  1  0
M  END
>  <Ki>  (116) 
114.0

>  <database>  (116) 
SRSLDB

$$$$

     RDKit          2D

 24 27  0  0  0  0  0  0  0  0999 V2000
    3.9555    3.2390    0.0000 O   0  0  0  0  0  0  0  0  0  0  0  0
    3.5654    1.7906    0.0000 C   0  0  0  0  0  0  0  0  0  0  0  0
    2.1160    1.4043    0.0000 C   0  0  0  0  0  0  0  0  0  0  0  0
    1.7258   -0.0441    0.0000 C   0  0  0  0  0  0  0  0  0  0  0  0
    0.2764   -0.4305    0.0000 C   0  0  0  0  0  0  0  0  0  0  0  0
   -0.7828    0.6316    0.0000 C   0  0  0  0  0  0  0  0  0  0  0  0
   -2.2322    0.2452    0.0000 C   0  0  0  0  0  0  0  0  0  0  0  0
   -2.6223   -1.2031    0.0000 N   0  0  0  0  0  0  0  0  0  0  0  0
   -4.0717   -1.5895    0.0000 C   0  0  0  0  0  0  0  0  0  0  0  0
   -5.1310   -0.5274    0.0000 C   0  0  0  0  0  0  0  0  0  0  0  0
   -4.7409    0.9210    0.0000 C   0  0  0  0  0  0  0  0  0  0  0  0
   -5.8002    1.9830    0.0000 C   0  0  0  0  0  0  0  0  0  0  0  0
   -7.2496    1.5967    0.0000 C   0  0  0  0  0  0  0  0  0  0  0  0
   -7.6397    0.1483    0.0000 C   0  0  0  0  0  0  0  0  0  0  0  0
   -6.5804   -0.9138    0.0000 C   0  0  0  0  0  0  0  0  0  0  0  0
   -1.5631   -2.2652    0.0000 C   0  0  0  0  0  0  0  0  0  0  0  0
   -0.1137   -1.8788    0.0000 C   0  0  0  0  0  0  0  0  0  0  0  0
    2.7851   -1.1062    0.0000 S   0  0  0  0  0  0  0  0  0  0  0  0
    4.2345   -0.7198    0.0000 C   0  0  0  0  0  0  0  0  0  0  0  0
    5.2938   -1.7819    0.0000 C   0  0  0  0  0  0  0  0  0  0  0  0
    6.7432   -1.3955    0.0000 C   0  0  0  0  0  0  0  0  0  0  0  0
    7.1333    0.0528    0.0000 C   0  0  0  0  0  0  0  0  0  0  0  0
    6.0740    1.1149    0.0000 C   0  0  0  0  0  0  0  0  0  0  0  0
    4.6246    0.7285    0.0000 C   0  0  0  0  0  0  0  0  0  0  0  0
  1  2  2  0
  2  3  1  0
  3  4  1  0
  4  5  1  0
  5  6  1  0
  6  7  1  0
  7  8  1  0
  8  9  1  0
  9 10  1  0
 10 11  2  0
 11 12  1  0
 12 13  2  0
 13 14  1  0
 14 15  2  0
  8 16  1  0
 16 17  1  0
  4 18  1  0
 18 19  1  0
 19 20  2  0
 20 21  1  0
 21 22  2  0
 22 23  1  0
 23 24  2  0
 24  2  1  0
 17  5  1  0
 24 19  1  0
 15 10  1  0
M  END
>  <Compound_Key>  (117) 
Spptn-14

>  <Ki>  (117) 
1550.0

>  <database>  (117) 
NewLiterature

>  <Document_ChEMBL_ID>  (117) 
10.1021/acs.jmedchem.0c02265

$$$$

     RDKit          2D

 22 27  0  0  0  0  0  0  0  0999 V2000
    0.6378   -3.1762    0.0000 C   0  0  0  0  0  0  0  0  0  0  0  0
    0.8125   -1.6865    0.0000 N   0  0  0  0  0  0  0  0  0  0  0  0
   -0.3904   -0.7903    0.0000 C   0  0  0  0  0  0  0  0  0  0  0  0
   -1.7679   -1.3839    0.0000 C   0  0  0  0  0  0  0  0  0  0  0  0
   -2.9708   -0.4878    0.0000 C   0  0  0  0  0  0  0  0  0  0  0  0
   -2.7961    1.0020    0.0000 C   0  0  0  0  0  0  0  0  0  0  0  0
   -3.9990    1.8982    0.0000 C   0  0  0  0  0  0  0  0  0  0  0  0
   -5.3765    1.3045    0.0000 C   0  0  0  0  0  0  0  0  0  0  0  0
   -5.5512   -0.1853    0.0000 C   0  0  0  0  0  0  0  0  0  0  0  0
   -6.9287   -0.7789    0.0000 F   0  0  0  0  0  0  0  0  0  0  0  0
   -4.3483   -1.0814    0.0000 C   0  0  0  0  0  0  0  0  0  0  0  0
    2.1900   -1.0928    0.0000 C   0  0  0  0  0  0  0  0  0  0  0  0
    3.4800   -1.8583    0.0000 C   0  0  0  0  0  0  0  0  0  0  0  0
    2.7697   -0.5371    0.0000 C   0  0  0  0  0  0  0  0  0  0  0  0
    1.4185    0.1143    0.0000 C   0  0  0  0  0  0  0  0  0  0  0  0
    1.6205    1.6006    0.0000 C   0  0  0  0  0  0  0  0  0  0  0  0
    3.0965    1.8678    0.0000 C   0  0  0  0  0  0  0  0  0  0  0  0
    3.8068    0.5466    0.0000 C   0  0  0  0  0  0  0  0  0  0  0  0
    5.1580   -0.1048    0.0000 C   0  0  0  0  0  0  0  0  0  0  0  0
    4.9560   -1.5911    0.0000 C   0  0  0  0  0  0  0  0  0  0  0  0
    2.8293    3.3438    0.0000 C   0  0  0  0  0  0  0  0  0  0  0  0
    1.3533    3.0766    0.0000 C   0  0  0  0  0  0  0  0  0  0  0  0
  1  2  1  0
  2  3  1  0
  3  4  1  0
  4  5  1  0
  5  6  2  0
  6  7  1  0
  7  8  2  0
  8  9  1  0
  9 10  1  0
  9 11  2  0
  2 12  1  0
 12 13  1  0
 13 14  1  0
 14 15  1  0
 15 16  1  0
 16 17  1  0
 17 18  1  0
 18 19  1  0
 19 20  1  0
 20 21  1  0
 21 22  1  0
 11  5  1  0
 22 12  1  0
 20 13  1  0
 18 14  1  0
 22 16  1  0
 21 17  1  0
M  END
>  <ChemBL_ID>  (118) 
CHEMBL1643902

>  <Ki>  (118) 
39.0

>  <database>  (118) 
SRSLDB

$$$$

     RDKit          2D

 23 25  0  0  0  0  0  0  0  0999 V2000
   -7.4649   -2.3787    0.0000 O   0  0  0  0  0  0  0  0  0  0  0  0
   -6.3640   -1.3599    0.0000 C   0  0  0  0  0  0  0  0  0  0  0  0
   -6.6959    0.1029    0.0000 C   0  0  0  0  0  0  0  0  0  0  0  0
   -5.5950    1.1218    0.0000 C   0  0  0  0  0  0  0  0  0  0  0  0
   -4.1623    0.6778    0.0000 C   0  0  0  0  0  0  0  0  0  0  0  0
   -3.8303   -0.7850    0.0000 C   0  0  0  0  0  0  0  0  0  0  0  0
   -4.9312   -1.8038    0.0000 C   0  0  0  0  0  0  0  0  0  0  0  0
   -2.4797   -1.4375    0.0000 C   0  0  0  0  0  0  0  0  0  0  0  0
   -1.1274   -0.7884    0.0000 C   0  0  0  0  0  0  0  0  0  0  0  0
   -0.7918    0.6735    0.0000 N   0  0  0  0  0  0  0  0  0  0  0  0
    0.6710    1.0054    0.0000 C   0  0  0  0  0  0  0  0  0  0  0  0
    1.6899   -0.0954    0.0000 C   0  0  0  0  0  0  0  0  0  0  0  0
    3.1527    0.2365    0.0000 C   0  0  0  0  0  0  0  0  0  0  0  0
    4.1716   -0.8644    0.0000 O   0  0  0  0  0  0  0  0  0  0  0  0
    5.6344   -0.5325    0.0000 C   0  0  0  0  0  0  0  0  0  0  0  0
    6.6532   -1.6334    0.0000 C   0  0  0  0  0  0  0  0  0  0  0  0
    8.1160   -1.3014    0.0000 C   0  0  0  0  0  0  0  0  0  0  0  0
    8.5600    0.1313    0.0000 C   0  0  0  0  0  0  0  0  0  0  0  0
    7.5412    1.2322    0.0000 C   0  0  0  0  0  0  0  0  0  0  0  0
    6.0783    0.9003    0.0000 C   0  0  0  0  0  0  0  0  0  0  0  0
   -1.7255    1.8475    0.0000 C   0  0  0  0  0  0  0  0  0  0  0  0
   -3.2255    1.8494    0.0000 C   0  0  0  0  0  0  0  0  0  0  0  0
   -3.8746    3.2017    0.0000 O   0  0  0  0  0  0  0  0  0  0  0  0
  1  2  1  0
  2  3  2  0
  3  4  1  0
  4  5  2  0
  5  6  1  0
  6  7  2  0
  6  8  1  0
  8  9  1  0
  9 10  1  0
 10 11  1  0
 11 12  1  0
 12 13  1  0
 13 14  1  0
 14 15  1  0
 15 16  2  0
 16 17  1  0
 17 18  2  0
 18 19  1  0
 19 20  2  0
 10 21  1  0
 21 22  1  0
 22 23  1  0
  7  2  1  0
 20 15  1  0
 22  5  1  0
M  END
>  <ChemBL_ID>  (119) 
CHEMBL1289627

>  <Ki>  (119) 
5.9

>  <database>  (119) 
SRSLDB

$$$$

     RDKit          2D

 34 37  0  0  0  0  0  0  0  0999 V2000
   -4.4818   -2.6952    0.0000 C   0  0  0  0  0  0  0  0  0  0  0  0
   -3.0888   -2.1388    0.0000 O   0  0  0  0  0  0  0  0  0  0  0  0
   -2.8741   -0.6542    0.0000 C   0  0  0  0  0  0  0  0  0  0  0  0
   -4.0525    0.2740    0.0000 C   0  0  0  0  0  0  0  0  0  0  0  0
   -3.8378    1.7585    0.0000 C   0  0  0  0  0  0  0  0  0  0  0  0
   -2.4448    2.3149    0.0000 C   0  0  0  0  0  0  0  0  0  0  0  0
   -2.2301    3.7994    0.0000 C   0  0  0  0  0  0  0  0  0  0  0  0
   -1.2664    1.3867    0.0000 C   0  0  0  0  0  0  0  0  0  0  0  0
   -1.4811   -0.0979    0.0000 C   0  0  0  0  0  0  0  0  0  0  0  0
   -0.3028   -1.0261    0.0000 N   0  0  0  0  0  0  0  0  0  0  0  0
    1.0902   -0.4697    0.0000 C   0  0  0  0  0  0  0  0  0  0  0  0
    1.3049    1.0149    0.0000 O   0  0  0  0  0  0  0  0  0  0  0  0
    2.2685   -1.3979    0.0000 O   0  0  0  0  0  0  0  0  0  0  0  0
    3.6615   -0.8415    0.0000 C   0  0  0  0  0  0  0  0  0  0  0  0
    4.8399   -1.7697    0.0000 C   0  0  0  0  0  0  0  0  0  0  0  0
    6.2329   -1.2133    0.0000 C   0  0  0  0  0  0  0  0  0  0  0  0
    7.6259   -0.6569    0.0000 C   0  0  0  0  0  0  0  0  0  0  0  0
    7.8406    0.8276    0.0000 C   0  0  0  0  0  0  0  0  0  0  0  0
    6.6622    1.7558    0.0000 C   0  0  0  0  0  0  0  0  0  0  0  0
    5.2692    1.1994    0.0000 C   0  0  0  0  0  0  0  0  0  0  0  0
    3.8762    0.6431    0.0000 C   0  0  0  0  0  0  0  0  0  0  0  0
    5.0545   -0.2851    0.0000 N   0  0  0  0  0  0  0  0  0  0  0  0
    3.6615   -0.8415    0.0000 C   0  0  0  0  0  0  0  0  0  0  0  0
    2.4832    0.0867    0.0000 C   0  0  0  0  0  0  0  0  0  0  0  0
    1.0902   -0.4697    0.0000 C   0  0  0  0  0  0  0  0  0  0  0  0
   -0.0881    0.4585    0.0000 C   0  0  0  0  0  0  0  0  0  0  0  0
   -1.4811   -0.0979    0.0000 C   0  0  0  0  0  0  0  0  0  0  0  0
   -2.6594    0.8303    0.0000 C   0  0  0  0  0  0  0  0  0  0  0  0
   -4.0525    0.2740    0.0000 C   0  0  0  0  0  0  0  0  0  0  0  0
   -5.2308    1.2021    0.0000 C   0  0  0  0  0  0  0  0  0  0  0  0
   -6.6238    0.6458    0.0000 C   0  0  0  0  0  0  0  0  0  0  0  0
   -6.8385   -0.8388    0.0000 C   0  0  0  0  0  0  0  0  0  0  0  0
   -5.6601   -1.7670    0.0000 C   0  0  0  0  0  0  0  0  0  0  0  0
   -4.2671   -1.2106    0.0000 C   0  0  0  0  0  0  0  0  0  0  0  0
  1  2  1  0
  2  3  1  0
  3  4  2  0
  4  5  1  0
  5  6  2  0
  6  7  1  0
  6  8  1  0
  8  9  2  0
  9 10  1  0
 10 11  1  0
 11 12  2  0
 11 13  1  0
 13 14  1  0
 14 15  1  0
 15 16  1  0
 16 17  1  0
 17 18  1  0
 18 19  1  0
 19 20  1  0
 20 21  1  0
 20 22  1  0
 22 23  1  0
 23 24  1  0
 24 25  1  0
 25 26  1  0
 26 27  1  0
 27 28  1  0
 28 29  1  0
 29 30  2  0
 30 31  1  0
 31 32  2  0
 32 33  1  0
 33 34  2  0
  9  3  1  0
 21 14  1  0
 34 29  1  0
 22 16  1  0
M  END
>  <Ki>  (120) 
7.6

>  <database>  (120) 
SRSLDB

$$$$

     RDKit          2D

 20 26  0  0  0  0  0  0  0  0999 V2000
    0.6171    3.1625    0.0000 O   0  0  0  0  0  0  0  0  0  0  0  0
    0.5325    1.6649    0.0000 C   0  0  0  0  0  0  0  0  0  0  0  0
    1.6943    0.7162    0.0000 C   0  0  0  0  0  0  0  0  0  0  0  0
    3.0925    0.1729    0.0000 C   0  0  0  0  0  0  0  0  0  0  0  0
    4.5901    0.0883    0.0000 C   0  0  0  0  0  0  0  0  0  0  0  0
    3.6675   -0.8551    0.0000 C   0  0  0  0  0  0  0  0  0  0  0  0
    3.7111   -2.1740    0.0000 C   0  0  0  0  0  0  0  0  0  0  0  0
    2.5492   -1.2253    0.0000 C   0  0  0  0  0  0  0  0  0  0  0  0
    1.1511   -0.6820    0.0000 C   0  0  0  0  0  0  0  0  0  0  0  0
   -0.3465   -0.5974    0.0000 C   0  0  0  0  0  0  0  0  0  0  0  0
    4.6157   -0.9775    0.0000 C   0  0  0  0  0  0  0  0  0  0  0  0
    3.7783    1.3496    0.0000 C   0  0  0  0  0  0  0  0  0  0  0  0
   -0.7289    0.8531    0.0000 N   0  0  0  0  0  0  0  0  0  0  0  0
   -2.1270    1.3963    0.0000 C   0  0  0  0  0  0  0  0  0  0  0  0
   -3.2966    0.4571    0.0000 C   0  0  0  0  0  0  0  0  0  0  0  0
   -4.6948    1.0004    0.0000 C   0  0  0  0  0  0  0  0  0  0  0  0
   -5.8643    0.0612    0.0000 C   0  0  0  0  0  0  0  0  0  0  0  0
   -5.6357   -1.4213    0.0000 C   0  0  0  0  0  0  0  0  0  0  0  0
   -4.2375   -1.9646    0.0000 C   0  0  0  0  0  0  0  0  0  0  0  0
   -3.0680   -1.0254    0.0000 C   0  0  0  0  0  0  0  0  0  0  0  0
  2  1  1  6
  3  2  1  1
  3  4  1  0
  4  5  1  1
  5  6  1  1
  7  6  1  6
  8  7  1  1
  8  9  1  0
  9 10  1  1
 11 10  1  1
 11 12  1  0
 10 13  1  1
 13 14  1  0
 14 15  1  0
 15 16  2  0
 16 17  1  0
 17 18  2  0
 18 19  1  0
 19 20  2  0
 12  2  1  0
 20 15  1  0
 13  2  1  0
  9  3  1  0
  8  4  1  0
 12  5  1  6
 11  7  1  0
M  END
>  <ChemBL_ID>  (121) 
CHEMBL1189234

>  <Ki>  (121) 
12.0

>  <database>  (121) 
SRSLDB

$$$$

     RDKit          2D

 25 28  0  0  0  0  0  0  0  0999 V2000
   -4.6625   -2.4451    0.0000 F   0  0  0  0  0  0  0  0  0  0  0  0
   -5.7229   -1.3842    0.0000 C   0  0  0  0  0  0  0  0  0  0  0  0
   -7.1719   -1.7721    0.0000 C   0  0  0  0  0  0  0  0  0  0  0  0
   -8.2323   -0.7112    0.0000 C   0  0  0  0  0  0  0  0  0  0  0  0
   -7.8437    0.7376    0.0000 C   0  0  0  0  0  0  0  0  0  0  0  0
   -6.3947    1.1255    0.0000 C   0  0  0  0  0  0  0  0  0  0  0  0
   -5.3343    0.0646    0.0000 C   0  0  0  0  0  0  0  0  0  0  0  0
   -3.8853    0.4525    0.0000 N   0  0  0  0  0  0  0  0  0  0  0  0
   -2.8249   -0.6084    0.0000 C   0  0  0  0  0  0  0  0  0  0  0  0
   -1.3760   -0.2205    0.0000 C   0  0  0  0  0  0  0  0  0  0  0  0
   -0.9874    1.2282    0.0000 N   0  0  0  0  0  0  0  0  0  0  0  0
    0.4616    1.6161    0.0000 C   0  0  0  0  0  0  0  0  0  0  0  0
    1.5220    0.5552    0.0000 C   0  0  0  0  0  0  0  0  0  0  0  0
    2.9710    0.9431    0.0000 C   0  0  0  0  0  0  0  0  0  0  0  0
    4.0314   -0.1178    0.0000 N   0  0  0  0  0  0  0  0  0  0  0  0
    3.7964   -1.5993    0.0000 C   0  0  0  0  0  0  0  0  0  0  0  0
    5.1327   -2.2806    0.0000 C   0  0  0  0  0  0  0  0  0  0  0  0
    6.1937   -1.2202    0.0000 C   0  0  0  0  0  0  0  0  0  0  0  0
    7.6916   -1.2990    0.0000 C   0  0  0  0  0  0  0  0  0  0  0  0
    8.5088   -0.0412    0.0000 C   0  0  0  0  0  0  0  0  0  0  0  0
    7.8282    1.2955    0.0000 C   0  0  0  0  0  0  0  0  0  0  0  0
    6.3302    1.3743    0.0000 C   0  0  0  0  0  0  0  0  0  0  0  0
    5.5130    0.1165    0.0000 C   0  0  0  0  0  0  0  0  0  0  0  0
   -2.0478    2.2892    0.0000 C   0  0  0  0  0  0  0  0  0  0  0  0
   -3.4968    1.9013    0.0000 C   0  0  0  0  0  0  0  0  0  0  0  0
  1  2  1  0
  2  3  2  0
  3  4  1  0
  4  5  2  0
  5  6  1  0
  6  7  2  0
  7  8  1  0
  8  9  1  0
  9 10  1  0
 10 11  1  0
 11 12  1  0
 12 13  1  0
 13 14  1  0
 14 15  1  0
 15 16  1  0
 16 17  2  0
 17 18  1  0
 18 19  2  0
 19 20  1  0
 20 21  2  0
 21 22  1  0
 22 23  2  0
 11 24  1  0
 24 25  1  0
  7  2  1  0
 25  8  1  0
 23 15  1  0
 23 18  1  0
M  END
>  <ChemBL_ID>  (122) 
CHEMBL3235107

>  <Ki>  (122) 
9.9

>  <database>  (122) 
SRSLDB

$$$$

     RDKit          2D

 30 33  0  0  0  0  0  0  0  0999 V2000
   -5.7170   -3.0970    0.0000 C   0  0  0  0  0  0  0  0  0  0  0  0
   -4.3401   -2.5020    0.0000 O   0  0  0  0  0  0  0  0  0  0  0  0
   -4.1669   -1.0120    0.0000 C   0  0  0  0  0  0  0  0  0  0  0  0
   -5.3707   -0.1171    0.0000 C   0  0  0  0  0  0  0  0  0  0  0  0
   -5.1976    1.3729    0.0000 C   0  0  0  0  0  0  0  0  0  0  0  0
   -3.8206    1.9679    0.0000 C   0  0  0  0  0  0  0  0  0  0  0  0
   -3.6475    3.4579    0.0000 C   0  0  0  0  0  0  0  0  0  0  0  0
   -2.6169    1.0730    0.0000 C   0  0  0  0  0  0  0  0  0  0  0  0
   -2.7900   -0.4170    0.0000 C   0  0  0  0  0  0  0  0  0  0  0  0
   -1.5862   -1.3119    0.0000 N   0  0  0  0  0  0  0  0  0  0  0  0
   -0.2093   -0.7169    0.0000 C   0  0  0  0  0  0  0  0  0  0  0  0
   -0.0361    0.7731    0.0000 O   0  0  0  0  0  0  0  0  0  0  0  0
    0.9945   -1.6118    0.0000 O   0  0  0  0  0  0  0  0  0  0  0  0
    2.3714   -1.0167    0.0000 C   0  0  0  0  0  0  0  0  0  0  0  0
    3.5752   -1.9117    0.0000 C   0  0  0  0  0  0  0  0  0  0  0  0
    4.9521   -1.3166    0.0000 C   0  0  0  0  0  0  0  0  0  0  0  0
    6.3291   -0.7216    0.0000 C   0  0  0  0  0  0  0  0  0  0  0  0
    6.5022    0.7684    0.0000 C   0  0  0  0  0  0  0  0  0  0  0  0
    5.2984    1.6633    0.0000 C   0  0  0  0  0  0  0  0  0  0  0  0
    3.9215    1.0683    0.0000 C   0  0  0  0  0  0  0  0  0  0  0  0
    2.5446    0.4732    0.0000 C   0  0  0  0  0  0  0  0  0  0  0  0
    3.7484   -0.4217    0.0000 N   0  0  0  0  0  0  0  0  0  0  0  0
    2.3714   -1.0167    0.0000 C   0  0  0  0  0  0  0  0  0  0  0  0
    1.1676   -0.1218    0.0000 C   0  0  0  0  0  0  0  0  0  0  0  0
    1.3408    1.3682    0.0000 C   0  0  0  0  0  0  0  0  0  0  0  0
    0.1370    2.2631    0.0000 C   0  0  0  0  0  0  0  0  0  0  0  0
   -1.2399    1.6680    0.0000 C   0  0  0  0  0  0  0  0  0  0  0  0
   -1.4131    0.1781    0.0000 C   0  0  0  0  0  0  0  0  0  0  0  0
   -2.8931   -0.0661    0.0000 I   0  0  0  0  0  0  0  0  0  0  0  0
   -0.2093   -0.7169    0.0000 C   0  0  0  0  0  0  0  0  0  0  0  0
  1  2  1  0
  2  3  1  0
  3  4  2  0
  4  5  1  0
  5  6  2  0
  6  7  1  0
  6  8  1  0
  8  9  2  0
  9 10  1  0
 10 11  1  0
 11 12  2  0
 11 13  1  0
 13 14  1  0
 14 15  1  0
 15 16  1  0
 16 17  1  0
 17 18  1  0
 18 19  1  0
 19 20  1  0
 20 21  1  0
 20 22  1  0
 22 23  1  0
 23 24  1  0
 24 25  2  0
 25 26  1  0
 26 27  2  0
 27 28  1  0
 28 29  1  0
 28 30  2  0
  9  3  1  0
 21 14  1  0
 30 24  1  0
 22 16  1  0
M  END
>  <Ki>  (123) 
50.9

>  <database>  (123) 
SRSLDB

$$$$

     RDKit          2D

 41 45  0  0  0  0  0  0  0  0999 V2000
   -7.6936    7.2359    0.0000 C   0  0  0  0  0  0  0  0  0  0  0  0
   -8.5469    6.0023    0.0000 O   0  0  0  0  0  0  0  0  0  0  0  0
   -7.9052    4.6465    0.0000 C   0  0  0  0  0  0  0  0  0  0  0  0
   -6.4102    4.5243    0.0000 C   0  0  0  0  0  0  0  0  0  0  0  0
   -5.7686    3.1684    0.0000 C   0  0  0  0  0  0  0  0  0  0  0  0
   -6.6219    1.9348    0.0000 C   0  0  0  0  0  0  0  0  0  0  0  0
   -8.1169    2.0571    0.0000 C   0  0  0  0  0  0  0  0  0  0  0  0
   -8.9703    0.8234    0.0000 C   0  0  0  0  0  0  0  0  0  0  0  0
   -8.3286   -0.5324    0.0000 N   0  0  0  0  0  0  0  0  0  0  0  0
   -6.8546   -0.8102    0.0000 C   0  0  0  0  0  0  0  0  0  0  0  0
   -6.6633   -2.2980    0.0000 C   0  0  0  0  0  0  0  0  0  0  0  0
   -5.3472   -3.0177    0.0000 C   0  0  0  0  0  0  0  0  0  0  0  0
   -5.3125   -4.5173    0.0000 C   0  0  0  0  0  0  0  0  0  0  0  0
   -3.9965   -5.2370    0.0000 C   0  0  0  0  0  0  0  0  0  0  0  0
   -2.7151   -4.4571    0.0000 C   0  0  0  0  0  0  0  0  0  0  0  0
   -2.7499   -2.9575    0.0000 C   0  0  0  0  0  0  0  0  0  0  0  0
   -1.4685   -2.1777    0.0000 C   0  0  0  0  0  0  0  0  0  0  0  0
   -1.5032   -0.6781    0.0000 O   0  0  0  0  0  0  0  0  0  0  0  0
   -0.1525   -2.8974    0.0000 N   0  0  0  0  0  0  0  0  0  0  0  0
    1.1289   -2.1175    0.0000 C   0  0  0  0  0  0  0  0  0  0  0  0
    2.4449   -2.8373    0.0000 C   0  0  0  0  0  0  0  0  0  0  0  0
    3.7262   -2.0574    0.0000 C   0  0  0  0  0  0  0  0  0  0  0  0
    5.0423   -2.7771    0.0000 C   0  0  0  0  0  0  0  0  0  0  0  0
    6.3236   -1.9972    0.0000 N   0  0  0  0  0  0  0  0  0  0  0  0
    7.6397   -2.7170    0.0000 C   0  0  0  0  0  0  0  0  0  0  0  0
    8.9210   -1.9371    0.0000 C   0  0  0  0  0  0  0  0  0  0  0  0
    8.8863   -0.4375    0.0000 C   0  0  0  0  0  0  0  0  0  0  0  0
   10.1676    0.3424    0.0000 C   0  0  0  0  0  0  0  0  0  0  0  0
   10.1329    1.8420    0.0000 C   0  0  0  0  0  0  0  0  0  0  0  0
   11.4142    2.6218    0.0000 O   0  0  0  0  0  0  0  0  0  0  0  0
   12.7303    1.9021    0.0000 C   0  0  0  0  0  0  0  0  0  0  0  0
    8.8168    2.5617    0.0000 C   0  0  0  0  0  0  0  0  0  0  0  0
    8.7821    4.0613    0.0000 O   0  0  0  0  0  0  0  0  0  0  0  0
    7.4661    4.7810    0.0000 C   0  0  0  0  0  0  0  0  0  0  0  0
    7.5355    1.7818    0.0000 C   0  0  0  0  0  0  0  0  0  0  0  0
    7.5702    0.2822    0.0000 C   0  0  0  0  0  0  0  0  0  0  0  0
    6.2889   -0.4976    0.0000 C   0  0  0  0  0  0  0  0  0  0  0  0
   -4.0659   -2.2378    0.0000 C   0  0  0  0  0  0  0  0  0  0  0  0
   -8.0191   -2.9396    0.0000 N   0  0  0  0  0  0  0  0  0  0  0  0
   -9.0483   -1.8484    0.0000 N   0  0  0  0  0  0  0  0  0  0  0  0
   -8.7586    3.4129    0.0000 C   0  0  0  0  0  0  0  0  0  0  0  0
  1  2  1  0
  2  3  1  0
  3  4  2  0
  4  5  1  0
  5  6  2  0
  6  7  1  0
  7  8  1  0
  8  9  1  0
  9 10  1  0
 10 11  2  0
 11 12  1  0
 12 13  2  0
 13 14  1  0
 14 15  2  0
 15 16  1  0
 16 17  1  0
 17 18  2  0
 17 19  1  0
 19 20  1  0
 20 21  1  0
 21 22  1  0
 22 23  1  0
 23 24  1  0
 24 25  1  0
 25 26  1  0
 26 27  1  0
 27 28  2  0
 28 29  1  0
 29 30  1  0
 30 31  1  0
 29 32  2  0
 32 33  1  0
 33 34  1  0
 32 35  1  0
 35 36  2  0
 36 37  1  0
 16 38  2  0
 11 39  1  0
 39 40  2  0
  7 41  2  0
 41  3  1  0
 40  9  1  0
 38 12  1  0
 37 24  1  0
 36 27  1  0
M  END
>  <ChemBL_ID>  (124) 
CHEMBL3262787

>  <Ki>  (124) 
66.0

>  <database>  (124) 
SRSLDB

$$$$

     RDKit          2D

 41 45  0  0  0  0  0  0  0  0999 V2000
   -2.3646   -3.7999    0.0000 C   0  0  0  0  0  0  0  0  0  0  0  0
   -1.0841   -3.0187    0.0000 O   0  0  0  0  0  0  0  0  0  0  0  0
   -1.1204   -1.5192    0.0000 C   0  0  0  0  0  0  0  0  0  0  0  0
   -2.4373   -0.8008    0.0000 C   0  0  0  0  0  0  0  0  0  0  0  0
   -2.4736    0.6987    0.0000 C   0  0  0  0  0  0  0  0  0  0  0  0
   -1.1931    1.4800    0.0000 C   0  0  0  0  0  0  0  0  0  0  0  0
   -1.2294    2.9795    0.0000 C   0  0  0  0  0  0  0  0  0  0  0  0
    0.1238    0.7616    0.0000 C   0  0  0  0  0  0  0  0  0  0  0  0
    0.1601   -0.7379    0.0000 C   0  0  0  0  0  0  0  0  0  0  0  0
    1.4769   -1.4563    0.0000 N   0  0  0  0  0  0  0  0  0  0  0  0
    2.7574   -0.6750    0.0000 C   0  0  0  0  0  0  0  0  0  0  0  0
    2.7211    0.8245    0.0000 O   0  0  0  0  0  0  0  0  0  0  0  0
    4.0742   -1.3934    0.0000 O   0  0  0  0  0  0  0  0  0  0  0  0
    5.3547   -0.6121    0.0000 C   0  0  0  0  0  0  0  0  0  0  0  0
    6.6715   -1.3305    0.0000 C   0  0  0  0  0  0  0  0  0  0  0  0
    7.9520   -0.5493    0.0000 C   0  0  0  0  0  0  0  0  0  0  0  0
    9.2325    0.2320    0.0000 C   0  0  0  0  0  0  0  0  0  0  0  0
    9.1962    1.7315    0.0000 C   0  0  0  0  0  0  0  0  0  0  0  0
    7.8794    2.4499    0.0000 C   0  0  0  0  0  0  0  0  0  0  0  0
    6.5989    1.6686    0.0000 C   0  0  0  0  0  0  0  0  0  0  0  0
    5.3184    0.8874    0.0000 C   0  0  0  0  0  0  0  0  0  0  0  0
    6.6352    0.1691    0.0000 N   0  0  0  0  0  0  0  0  0  0  0  0
    5.3547   -0.6121    0.0000 C   0  0  0  0  0  0  0  0  0  0  0  0
    4.0379    0.1062    0.0000 C   0  0  0  0  0  0  0  0  0  0  0  0
    2.7574   -0.6750    0.0000 C   0  0  0  0  0  0  0  0  0  0  0  0
    1.4406    0.0433    0.0000 C   0  0  0  0  0  0  0  0  0  0  0  0
    0.1601   -0.7379    0.0000 C   0  0  0  0  0  0  0  0  0  0  0  0
   -1.1567   -0.0196    0.0000 C   0  0  0  0  0  0  0  0  0  0  0  0
   -2.4373   -0.8008    0.0000 N   0  0  0  0  0  0  0  0  0  0  0  0
   -3.7541   -0.0825    0.0000 C   0  0  0  0  0  0  0  0  0  0  0  0
   -3.7904    1.4171    0.0000 C   0  0  0  0  0  0  0  0  0  0  0  0
   -5.1072    2.1354    0.0000 C   0  0  0  0  0  0  0  0  0  0  0  0
   -6.3877    1.3542    0.0000 C   0  0  0  0  0  0  0  0  0  0  0  0
   -7.7045    2.0725    0.0000 N   0  0  0  0  0  4  0  0  0  0  0  0
   -8.9850    1.2913    0.0000 O   0  0  0  0  0  0  0  0  0  0  0  0
   -7.7408    3.5721    0.0000 O   0  0  0  0  0  1  0  0  0  0  0  0
   -6.3514   -0.1454    0.0000 C   0  0  0  0  0  0  0  0  0  0  0  0
   -7.4415   -1.1758    0.0000 N   0  0  0  0  0  0  0  0  0  0  0  0
   -6.7984   -2.5309    0.0000 O   0  0  0  0  0  0  0  0  0  0  0  0
   -5.3108   -2.3381    0.0000 N   0  0  0  0  0  0  0  0  0  0  0  0
   -5.0346   -0.8637    0.0000 C   0  0  0  0  0  0  0  0  0  0  0  0
  1  2  1  0
  2  3  1  0
  3  4  2  0
  4  5  1  0
  5  6  2  0
  6  7  1  0
  6  8  1  0
  8  9  2  0
  9 10  1  0
 10 11  1  0
 11 12  2  0
 11 13  1  0
 13 14  1  0
 14 15  1  0
 15 16  1  0
 16 17  1  0
 17 18  1  0
 18 19  1  0
 19 20  1  0
 20 21  1  0
 20 22  1  0
 22 23  1  0
 23 24  1  0
 24 25  1  0
 25 26  1  0
 26 27  1  0
 27 28  1  0
 28 29  1  0
 29 30  1  0
 30 31  2  0
 31 32  1  0
 32 33  2  0
 33 34  1  0
 34 35  2  0
 34 36  1  0
 33 37  1  0
 37 38  2  0
 38 39  1  0
 39 40  1  0
 40 41  2  0
  9  3  1  0
 21 14  1  0
 41 30  1  0
 22 16  1  0
 41 37  1  0
M  CHG  2  34   1  36  -1
M  END
>  <Ki>  (125) 
45.0

>  <database>  (125) 
SRSLDB

$$$$

     RDKit          2D

 30 33  0  0  0  0  0  0  0  0999 V2000
    9.3861   -3.2751    0.0000 C   0  0  0  0  0  0  0  0  0  0  0  0
    9.1856   -1.7885    0.0000 C   0  0  0  0  0  0  0  0  0  0  0  0
   10.3727   -0.8716    0.0000 F   0  0  0  0  0  0  0  0  0  0  0  0
    7.7979   -1.2189    0.0000 C   0  0  0  0  0  0  0  0  0  0  0  0
    6.6108   -2.1358    0.0000 C   0  0  0  0  0  0  0  0  0  0  0  0
    5.2232   -1.5662    0.0000 C   0  0  0  0  0  0  0  0  0  0  0  0
    5.0227   -0.0797    0.0000 C   0  0  0  0  0  0  0  0  0  0  0  0
    6.2098    0.8372    0.0000 C   0  0  0  0  0  0  0  0  0  0  0  0
    7.5974    0.2676    0.0000 C   0  0  0  0  0  0  0  0  0  0  0  0
    5.7046    2.2496    0.0000 O   0  0  0  0  0  0  0  0  0  0  0  0
    4.2052    2.2056    0.0000 C   0  0  0  0  0  0  0  0  0  0  0  0
    3.2883    3.3927    0.0000 O   0  0  0  0  0  0  0  0  0  0  0  0
    3.7838    0.7660    0.0000 N   0  0  0  0  0  0  0  0  0  0  0  0
    2.3714    0.2608    0.0000 C   0  0  0  0  0  0  0  0  0  0  0  0
    1.2277    1.2313    0.0000 C   0  0  0  0  0  0  0  0  0  0  0  0
   -0.1846    0.7261    0.0000 C   0  0  0  0  0  0  0  0  0  0  0  0
   -1.3283    1.6967    0.0000 C   0  0  0  0  0  0  0  0  0  0  0  0
   -2.7407    1.1915    0.0000 N   0  0  0  0  0  0  0  0  0  0  0  0
   -3.8844    2.1620    0.0000 C   0  0  0  0  0  0  0  0  0  0  0  0
   -5.2968    1.6568    0.0000 C   0  0  0  0  0  0  0  0  0  0  0  0
   -5.5654    0.1811    0.0000 N   0  0  0  0  0  0  0  0  0  0  0  0
   -6.9778   -0.3241    0.0000 C   0  0  0  0  0  0  0  0  0  0  0  0
   -8.1215    0.6464    0.0000 C   0  0  0  0  0  0  0  0  0  0  0  0
   -9.5339    0.1412    0.0000 C   0  0  0  0  0  0  0  0  0  0  0  0
   -9.8025   -1.3345    0.0000 C   0  0  0  0  0  0  0  0  0  0  0  0
  -11.2149   -1.8397    0.0000 F   0  0  0  0  0  0  0  0  0  0  0  0
   -8.6588   -2.3050    0.0000 C   0  0  0  0  0  0  0  0  0  0  0  0
   -7.2465   -1.7998    0.0000 C   0  0  0  0  0  0  0  0  0  0  0  0
   -4.4217   -0.7895    0.0000 C   0  0  0  0  0  0  0  0  0  0  0  0
   -3.0094   -0.2843    0.0000 C   0  0  0  0  0  0  0  0  0  0  0  0
  1  2  1  0
  2  3  1  0
  2  4  1  0
  4  5  2  0
  5  6  1  0
  6  7  2  0
  7  8  1  0
  8  9  2  0
  8 10  1  0
 10 11  1  0
 11 12  2  0
 11 13  1  0
 13 14  1  0
 14 15  1  0
 15 16  1  0
 16 17  1  0
 17 18  1  0
 18 19  1  0
 19 20  1  0
 20 21  1  0
 21 22  1  0
 22 23  2  0
 23 24  1  0
 24 25  2  0
 25 26  1  0
 25 27  1  0
 27 28  2  0
 21 29  1  0
 29 30  1  0
  9  4  1  0
 30 18  1  0
 13  7  1  0
 28 22  1  0
M  END
>  <Ki>  (126) 
6.72

>  <database>  (126) 
SRSLDB

$$$$

     RDKit          2D

 48 54  0  0  0  0  0  0  0  0999 V2000
   15.0226    2.5174    0.0000 N   0  0  0  0  0  0  0  0  0  0  0  0
   13.6231    1.9775    0.0000 C   0  0  0  0  0  0  0  0  0  0  0  0
   12.4558    2.9196    0.0000 C   0  0  0  0  0  0  0  0  0  0  0  0
   11.0563    2.3797    0.0000 C   0  0  0  0  0  0  0  0  0  0  0  0
   10.8241    0.8978    0.0000 C   0  0  0  0  0  0  0  0  0  0  0  0
   11.9914   -0.0443    0.0000 C   0  0  0  0  0  0  0  0  0  0  0  0
   11.7592   -1.5262    0.0000 C   0  0  0  0  0  0  0  0  0  0  0  0
   12.9265   -2.4682    0.0000 C   0  0  0  0  0  0  0  0  0  0  0  0
   14.3260   -1.9284    0.0000 C   0  0  0  0  0  0  0  0  0  0  0  0
   14.5582   -0.4465    0.0000 C   0  0  0  0  0  0  0  0  0  0  0  0
   13.3909    0.4956    0.0000 C   0  0  0  0  0  0  0  0  0  0  0  0
   10.3597   -2.0661    0.0000 C   0  0  0  0  0  0  0  0  0  0  0  0
   10.1275   -3.5480    0.0000 O   0  0  0  0  0  0  0  0  0  0  0  0
    9.1925   -1.1240    0.0000 N   0  0  0  0  0  0  0  0  0  0  0  0
    7.7930   -1.6639    0.0000 C   0  0  0  0  0  0  0  0  0  0  0  0
    6.6257   -0.7218    0.0000 C   0  0  0  0  0  0  0  0  0  0  0  0
    5.2262   -1.2617    0.0000 C   0  0  0  0  0  0  0  0  0  0  0  0
    4.0589   -0.3197    0.0000 C   0  0  0  0  0  0  0  0  0  0  0  0
    2.6595   -0.8595    0.0000 C   0  0  0  0  0  0  0  0  0  0  0  0
    1.4922    0.0825    0.0000 C   0  0  0  0  0  0  0  0  0  0  0  0
    0.0927   -0.4574    0.0000 O   0  0  0  0  0  0  0  0  0  0  0  0
   -1.0746    0.4847    0.0000 C   0  0  0  0  0  0  0  0  0  0  0  0
   -0.8424    1.9666    0.0000 C   0  0  0  0  0  0  0  0  0  0  0  0
   -2.0097    2.9087    0.0000 C   0  0  0  0  0  0  0  0  0  0  0  0
   -3.4091    2.3688    0.0000 C   0  0  0  0  0  0  0  0  0  0  0  0
   -3.6413    0.8869    0.0000 C   0  0  0  0  0  0  0  0  0  0  0  0
   -2.4741   -0.0552    0.0000 C   0  0  0  0  0  0  0  0  0  0  0  0
   -2.7063   -1.5371    0.0000 C   0  0  0  0  0  0  0  0  0  0  0  0
   -4.1057   -2.0770    0.0000 C   0  0  0  0  0  0  0  0  0  0  0  0
   -5.2730   -1.1349    0.0000 C   0  0  0  0  0  0  0  0  0  0  0  0
   -5.0408    0.3470    0.0000 C   0  0  0  0  0  0  0  0  0  0  0  0
   -6.2081    1.2890    0.0000 C   0  0  0  0  0  0  0  0  0  0  0  0
   -7.6076    0.7492    0.0000 C   0  0  0  0  0  0  0  0  0  0  0  0
   -8.7749    1.6912    0.0000 C   0  0  0  0  0  0  0  0  0  0  0  0
  -10.1743    1.1513    0.0000 N   0  0  0  0  0  0  0  0  0  0  0  0
  -11.3416    2.0934    0.0000 C   0  0  0  0  0  0  0  0  0  0  0  0
  -12.7411    1.5535    0.0000 C   0  0  0  0  0  0  0  0  0  0  0  0
  -12.9733    0.0716    0.0000 N   0  0  0  0  0  0  0  0  0  0  0  0
  -14.3728   -0.4683    0.0000 C   0  0  0  0  0  0  0  0  0  0  0  0
  -15.5401    0.4738    0.0000 C   0  0  0  0  0  0  0  0  0  0  0  0
  -16.9395   -0.0661    0.0000 C   0  0  0  0  0  0  0  0  0  0  0  0
  -17.1717   -1.5480    0.0000 C   0  0  0  0  0  0  0  0  0  0  0  0
  -16.0044   -2.4901    0.0000 C   0  0  0  0  0  0  0  0  0  0  0  0
  -14.6050   -1.9502    0.0000 C   0  0  0  0  0  0  0  0  0  0  0  0
  -11.8060   -0.8704    0.0000 C   0  0  0  0  0  0  0  0  0  0  0  0
  -10.4065   -0.3306    0.0000 C   0  0  0  0  0  0  0  0  0  0  0  0
    9.4247    0.3579    0.0000 C   0  0  0  0  0  0  0  0  0  0  0  0
    8.2574    1.2999    0.0000 O   0  0  0  0  0  0  0  0  0  0  0  0
  1  2  1  0
  2  3  2  0
  3  4  1  0
  4  5  2  0
  5  6  1  0
  6  7  2  0
  7  8  1  0
  8  9  2  0
  9 10  1  0
 10 11  2  0
  7 12  1  0
 12 13  2  0
 12 14  1  0
 14 15  1  0
 15 16  1  0
 16 17  1  0
 17 18  1  0
 18 19  1  0
 19 20  1  0
 20 21  1  0
 21 22  1  0
 22 23  2  0
 23 24  1  0
 24 25  2  0
 25 26  1  0
 26 27  2  0
 27 28  1  0
 28 29  1  0
 29 30  1  0
 30 31  1  0
 31 32  1  0
 32 33  1  0
 33 34  1  0
 34 35  1  0
 35 36  1  0
 36 37  1  0
 37 38  1  0
 38 39  1  0
 39 40  1  0
 40 41  1  0
 41 42  1  0
 42 43  1  0
 43 44  1  0
 38 45  1  0
 45 46  1  0
 14 47  1  0
 47 48  2  0
 11  2  1  0
 27 22  1  0
 46 35  1  0
 47  5  1  0
 11  6  1  0
 31 26  1  0
 44 39  1  0
M  END
>  <ChemBL_ID>  (127) 
CHEMBL3259961

>  <Ki>  (127) 
6.57

>  <database>  (127) 
SRSLDB

$$$$

     RDKit          2D

 30 33  0  0  0  0  0  0  0  0999 V2000
   -6.4111   -4.3609    0.0000 C   0  0  0  0  0  0  0  0  0  0  0  0
   -5.3532   -3.2975    0.0000 C   0  0  0  0  0  0  0  0  0  0  0  0
   -3.9033   -3.6820    0.0000 O   0  0  0  0  0  0  0  0  0  0  0  0
   -5.7452   -1.8496    0.0000 C   0  0  0  0  0  0  0  0  0  0  0  0
   -7.1951   -1.4652    0.0000 C   0  0  0  0  0  0  0  0  0  0  0  0
   -7.5871   -0.0173    0.0000 C   0  0  0  0  0  0  0  0  0  0  0  0
   -6.5291    1.0461    0.0000 C   0  0  0  0  0  0  0  0  0  0  0  0
   -6.6115    2.5439    0.0000 O   0  0  0  0  0  0  0  0  0  0  0  0
   -5.2125    3.0850    0.0000 C   0  0  0  0  0  0  0  0  0  0  0  0
   -4.8281    4.5349    0.0000 O   0  0  0  0  0  0  0  0  0  0  0  0
   -4.2656    1.9217    0.0000 N   0  0  0  0  0  0  0  0  0  0  0  0
   -2.7678    2.0041    0.0000 C   0  0  0  0  0  0  0  0  0  0  0  0
   -1.9476    0.7482    0.0000 C   0  0  0  0  0  0  0  0  0  0  0  0
   -0.4499    0.8306    0.0000 C   0  0  0  0  0  0  0  0  0  0  0  0
    0.3703   -0.4253    0.0000 C   0  0  0  0  0  0  0  0  0  0  0  0
    1.8681   -0.3429    0.0000 N   0  0  0  0  0  0  0  0  0  0  0  0
    2.6883   -1.5988    0.0000 C   0  0  0  0  0  0  0  0  0  0  0  0
    4.1860   -1.5164    0.0000 C   0  0  0  0  0  0  0  0  0  0  0  0
    4.8635   -0.1781    0.0000 N   0  0  0  0  0  0  0  0  0  0  0  0
    6.3613   -0.0958    0.0000 C   0  0  0  0  0  0  0  0  0  0  0  0
    7.1815   -1.3517    0.0000 C   0  0  0  0  0  0  0  0  0  0  0  0
    8.6792   -1.2693    0.0000 C   0  0  0  0  0  0  0  0  0  0  0  0
    9.3568    0.0690    0.0000 C   0  0  0  0  0  0  0  0  0  0  0  0
   10.8545    0.1514    0.0000 F   0  0  0  0  0  0  0  0  0  0  0  0
    8.5365    1.3249    0.0000 C   0  0  0  0  0  0  0  0  0  0  0  0
    7.0388    1.2425    0.0000 C   0  0  0  0  0  0  0  0  0  0  0  0
    4.0433    1.0777    0.0000 C   0  0  0  0  0  0  0  0  0  0  0  0
    2.5456    0.9954    0.0000 C   0  0  0  0  0  0  0  0  0  0  0  0
   -5.0793    0.6616    0.0000 C   0  0  0  0  0  0  0  0  0  0  0  0
   -4.6873   -0.7862    0.0000 C   0  0  0  0  0  0  0  0  0  0  0  0
  1  2  1  0
  2  3  2  0
  2  4  1  0
  4  5  2  0
  5  6  1  0
  6  7  2  0
  7  8  1  0
  8  9  1  0
  9 10  2  0
  9 11  1  0
 11 12  1  0
 12 13  1  0
 13 14  1  0
 14 15  1  0
 15 16  1  0
 16 17  1  0
 17 18  1  0
 18 19  1  0
 19 20  1  0
 20 21  2  0
 21 22  1  0
 22 23  2  0
 23 24  1  0
 23 25  1  0
 25 26  2  0
 19 27  1  0
 27 28  1  0
 11 29  1  0
 29 30  2  0
 30  4  1  0
 29  7  1  0
 28 16  1  0
 26 20  1  0
M  END
>  <Ki>  (128) 
1.21

>  <database>  (128) 
SRSLDB

$$$$

     RDKit          2D

 32 35  0  0  0  0  0  0  0  0999 V2000
  -11.0174   -0.9716    0.0000 C   0  0  0  0  0  0  0  0  0  0  0  0
   -9.8080   -1.8590    0.0000 O   0  0  0  0  0  0  0  0  0  0  0  0
   -8.4349   -1.2553    0.0000 C   0  0  0  0  0  0  0  0  0  0  0  0
   -8.2711    0.2358    0.0000 C   0  0  0  0  0  0  0  0  0  0  0  0
   -6.8980    0.8395    0.0000 C   0  0  0  0  0  0  0  0  0  0  0  0
   -5.6886   -0.0478    0.0000 C   0  0  0  0  0  0  0  0  0  0  0  0
   -5.8523   -1.5389    0.0000 C   0  0  0  0  0  0  0  0  0  0  0  0
   -7.2255   -2.1426    0.0000 C   0  0  0  0  0  0  0  0  0  0  0  0
   -7.3893   -3.6336    0.0000 O   0  0  0  0  0  0  0  0  0  0  0  0
   -6.1799   -4.5210    0.0000 C   0  0  0  0  0  0  0  0  0  0  0  0
   -4.3154    0.5559    0.0000 C   0  0  0  0  0  0  0  0  0  0  0  0
   -4.1517    2.0469    0.0000 N   0  0  0  0  0  0  0  0  0  0  0  0
   -2.7785    2.6506    0.0000 C   0  0  0  0  0  0  0  0  0  0  0  0
   -1.5691    1.7633    0.0000 C   0  0  0  0  0  0  0  0  0  0  0  0
   -0.1960    2.3670    0.0000 C   0  0  0  0  0  0  0  0  0  0  0  0
    1.0134    1.4796    0.0000 C   0  0  0  0  0  0  0  0  0  0  0  0
    2.3866    2.0833    0.0000 C   0  0  0  0  0  0  0  0  0  0  0  0
    3.5960    1.1960    0.0000 N   0  0  0  0  0  0  0  0  0  0  0  0
    4.9691    1.7997    0.0000 C   0  0  0  0  0  0  0  0  0  0  0  0
    5.1329    3.2907    0.0000 O   0  0  0  0  0  0  0  0  0  0  0  0
    6.1785    0.9124    0.0000 C   0  0  0  0  0  0  0  0  0  0  0  0
    6.1715   -0.5876    0.0000 C   0  0  0  0  0  0  0  0  0  0  0  0
    7.5959   -1.0578    0.0000 C   0  0  0  0  0  0  0  0  0  0  0  0
    8.1996   -2.4310    0.0000 C   0  0  0  0  0  0  0  0  0  0  0  0
    9.6906   -2.5947    0.0000 C   0  0  0  0  0  0  0  0  0  0  0  0
   10.2943   -3.9679    0.0000 I   0  0  0  0  0  0  0  0  0  0  0  0
   10.5780   -1.3853    0.0000 C   0  0  0  0  0  0  0  0  0  0  0  0
    9.9743   -0.0122    0.0000 C   0  0  0  0  0  0  0  0  0  0  0  0
    8.4832    0.1516    0.0000 C   0  0  0  0  0  0  0  0  0  0  0  0
    7.6072    1.3692    0.0000 O   0  0  0  0  0  0  0  0  0  0  0  0
   -5.3611    2.9342    0.0000 C   0  0  0  0  0  0  0  0  0  0  0  0
   -6.7342    2.3305    0.0000 C   0  0  0  0  0  0  0  0  0  0  0  0
  1  2  1  0
  2  3  1  0
  3  4  2  0
  4  5  1  0
  5  6  2  0
  6  7  1  0
  7  8  2  0
  8  9  1  0
  9 10  1  0
  6 11  1  0
 11 12  1  0
 12 13  1  0
 13 14  1  0
 14 15  1  0
 15 16  1  0
 16 17  1  0
 17 18  1  0
 18 19  1  0
 19 20  2  0
 19 21  1  0
 21 22  2  0
 22 23  1  0
 23 24  2  0
 24 25  1  0
 25 26  1  0
 25 27  2  0
 27 28  1  0
 28 29  2  0
 29 30  1  0
 12 31  1  0
 31 32  1  0
  8  3  1  0
 30 21  1  0
 32  5  1  0
 29 23  1  0
M  END
>  <Ki>  (129) 
8.9

>  <database>  (129) 
SRSLDB

$$$$

     RDKit          2D

 25 28  0  0  0  0  0  0  0  0999 V2000
   -9.4798   -1.1591    0.0000 F   0  0  0  0  0  0  0  0  0  0  0  0
   -8.0310   -0.7703    0.0000 C   0  0  0  0  0  0  0  0  0  0  0  0
   -7.6434    0.6788    0.0000 C   0  0  0  0  0  0  0  0  0  0  0  0
   -6.1947    1.0676    0.0000 C   0  0  0  0  0  0  0  0  0  0  0  0
   -5.1336    0.0074    0.0000 C   0  0  0  0  0  0  0  0  0  0  0  0
   -3.6849    0.3962    0.0000 N   0  0  0  0  0  0  0  0  0  0  0  0
   -2.6238   -0.6640    0.0000 C   0  0  0  0  0  0  0  0  0  0  0  0
   -1.1750   -0.2752    0.0000 C   0  0  0  0  0  0  0  0  0  0  0  0
   -0.7874    1.1739    0.0000 N   0  0  0  0  0  0  0  0  0  0  0  0
    0.6613    1.5627    0.0000 C   0  0  0  0  0  0  0  0  0  0  0  0
    1.7224    0.5025    0.0000 C   0  0  0  0  0  0  0  0  0  0  0  0
    3.1712    0.8913    0.0000 C   0  0  0  0  0  0  0  0  0  0  0  0
    4.2323   -0.1689    0.0000 N   0  0  0  0  0  0  0  0  0  0  0  0
    3.9982   -1.6505    0.0000 C   0  0  0  0  0  0  0  0  0  0  0  0
    5.3350   -2.3309    0.0000 C   0  0  0  0  0  0  0  0  0  0  0  0
    6.3952   -1.2698    0.0000 C   0  0  0  0  0  0  0  0  0  0  0  0
    7.8932   -1.3477    0.0000 C   0  0  0  0  0  0  0  0  0  0  0  0
    8.7096   -0.0893    0.0000 C   0  0  0  0  0  0  0  0  0  0  0  0
    8.0281    1.2469    0.0000 C   0  0  0  0  0  0  0  0  0  0  0  0
    6.5301    1.3248    0.0000 C   0  0  0  0  0  0  0  0  0  0  0  0
    5.7137    0.0664    0.0000 C   0  0  0  0  0  0  0  0  0  0  0  0
   -1.8485    2.2341    0.0000 C   0  0  0  0  0  0  0  0  0  0  0  0
   -3.2972    1.8453    0.0000 C   0  0  0  0  0  0  0  0  0  0  0  0
   -5.5212   -1.4417    0.0000 C   0  0  0  0  0  0  0  0  0  0  0  0
   -6.9699   -1.8305    0.0000 C   0  0  0  0  0  0  0  0  0  0  0  0
  1  2  1  0
  2  3  2  0
  3  4  1  0
  4  5  2  0
  5  6  1  0
  6  7  1  0
  7  8  1  0
  8  9  1  0
  9 10  1  0
 10 11  1  0
 11 12  1  0
 12 13  1  0
 13 14  1  0
 14 15  2  0
 15 16  1  0
 16 17  2  0
 17 18  1  0
 18 19  2  0
 19 20  1  0
 20 21  2  0
  9 22  1  0
 22 23  1  0
  5 24  1  0
 24 25  2  0
 25  2  1  0
 23  6  1  0
 21 13  1  0
 21 16  1  0
M  END
>  <Ki>  (130) 
20.0

>  <database>  (130) 
SRSLDB

$$$$

     RDKit          2D

 32 35  0  0  0  0  0  0  0  0999 V2000
   -5.1311   -2.5272    0.0000 C   0  0  0  0  0  0  0  0  0  0  0  0
   -3.7301   -1.9914    0.0000 O   0  0  0  0  0  0  0  0  0  0  0  0
   -3.4935   -0.5102    0.0000 C   0  0  0  0  0  0  0  0  0  0  0  0
   -4.6581    0.4353    0.0000 C   0  0  0  0  0  0  0  0  0  0  0  0
   -4.4215    1.9165    0.0000 C   0  0  0  0  0  0  0  0  0  0  0  0
   -3.0205    2.4523    0.0000 C   0  0  0  0  0  0  0  0  0  0  0  0
   -2.7839    3.9335    0.0000 C   0  0  0  0  0  0  0  0  0  0  0  0
   -1.8559    1.5068    0.0000 C   0  0  0  0  0  0  0  0  0  0  0  0
   -2.0925    0.0256    0.0000 C   0  0  0  0  0  0  0  0  0  0  0  0
   -0.9280   -0.9199    0.0000 N   0  0  0  0  0  0  0  0  0  0  0  0
    0.4731   -0.3841    0.0000 C   0  0  0  0  0  0  0  0  0  0  0  0
    0.7096    1.0971    0.0000 O   0  0  0  0  0  0  0  0  0  0  0  0
    1.6376   -1.3296    0.0000 O   0  0  0  0  0  0  0  0  0  0  0  0
    3.0387   -0.7938    0.0000 C   0  0  0  0  0  0  0  0  0  0  0  0
    4.2032   -1.7393    0.0000 C   0  0  0  0  0  0  0  0  0  0  0  0
    5.6042   -1.2035    0.0000 C   0  0  0  0  0  0  0  0  0  0  0  0
    7.0053   -0.6677    0.0000 C   0  0  0  0  0  0  0  0  0  0  0  0
    7.2418    0.8135    0.0000 C   0  0  0  0  0  0  0  0  0  0  0  0
    6.0773    1.7590    0.0000 C   0  0  0  0  0  0  0  0  0  0  0  0
    4.6762    1.2232    0.0000 C   0  0  0  0  0  0  0  0  0  0  0  0
    3.2752    0.6874    0.0000 C   0  0  0  0  0  0  0  0  0  0  0  0
    4.4397   -0.2580    0.0000 N   0  0  0  0  0  0  0  0  0  0  0  0
    3.0387   -0.7938    0.0000 C   0  0  0  0  0  0  0  0  0  0  0  0
    1.8741    0.1517    0.0000 C   0  0  0  0  0  0  0  0  0  0  0  0
    0.4731   -0.3841    0.0000 C   0  0  0  0  0  0  0  0  0  0  0  0
   -0.6914    0.5614    0.0000 C   0  0  0  0  0  0  0  0  0  0  0  0
   -2.0925    0.0256    0.0000 C   0  0  0  0  0  0  0  0  0  0  0  0
   -3.2570    0.9711    0.0000 C   0  0  0  0  0  0  0  0  0  0  0  0
   -4.6581    0.4353    0.0000 C   0  0  0  0  0  0  0  0  0  0  0  0
   -4.8946   -1.0459    0.0000 C   0  0  0  0  0  0  0  0  0  0  0  0
   -3.7301   -1.9914    0.0000 C   0  0  0  0  0  0  0  0  0  0  0  0
   -2.3290   -1.4556    0.0000 C   0  0  0  0  0  0  0  0  0  0  0  0
  1  2  1  0
  2  3  1  0
  3  4  2  0
  4  5  1  0
  5  6  2  0
  6  7  1  0
  6  8  1  0
  8  9  2  0
  9 10  1  0
 10 11  1  0
 11 12  2  0
 11 13  1  0
 13 14  1  0
 14 15  1  0
 15 16  1  0
 16 17  1  0
 17 18  1  0
 18 19  1  0
 19 20  1  0
 20 21  1  0
 20 22  1  0
 22 23  1  0
 23 24  1  0
 24 25  1  0
 25 26  1  0
 26 27  1  0
 27 28  2  0
 28 29  1  0
 29 30  2  0
 30 31  1  0
 31 32  2  0
  9  3  1  0
 21 14  1  0
 32 27  1  0
 22 16  1  0
M  END
>  <Ki>  (131) 
2.9

>  <database>  (131) 
SRSLDB

$$$$

     RDKit          2D

 25 28  0  0  0  0  0  0  0  0999 V2000
   -8.0013   -1.5406    0.0000 O   0  0  0  0  0  0  0  0  0  0  0  0
   -6.6999   -0.7947    0.0000 C   0  0  0  0  0  0  0  0  0  0  0  0
   -6.6951    0.7053    0.0000 C   0  0  0  0  0  0  0  0  0  0  0  0
   -5.3937    1.4512    0.0000 C   0  0  0  0  0  0  0  0  0  0  0  0
   -4.0971    0.6971    0.0000 C   0  0  0  0  0  0  0  0  0  0  0  0
   -4.1018   -0.8029    0.0000 C   0  0  0  0  0  0  0  0  0  0  0  0
   -5.4032   -1.5488    0.0000 C   0  0  0  0  0  0  0  0  0  0  0  0
   -2.9320   -1.7419    0.0000 C   0  0  0  0  0  0  0  0  0  0  0  0
   -1.4686   -1.4127    0.0000 C   0  0  0  0  0  0  0  0  0  0  0  0
   -0.8135   -0.0633    0.0000 N   0  0  0  0  0  0  0  0  0  0  0  0
    0.6865   -0.0681    0.0000 C   0  0  0  0  0  0  0  0  0  0  0  0
    1.4324   -1.3695    0.0000 C   0  0  0  0  0  0  0  0  0  0  0  0
    2.9324   -1.3742    0.0000 C   0  0  0  0  0  0  0  0  0  0  0  0
    3.6865   -0.0776    0.0000 C   0  0  0  0  0  0  0  0  0  0  0  0
    5.1865   -0.0823    0.0000 C   0  0  0  0  0  0  0  0  0  0  0  0
    5.9324   -1.3837    0.0000 C   0  0  0  0  0  0  0  0  0  0  0  0
    7.4324   -1.3885    0.0000 C   0  0  0  0  0  0  0  0  0  0  0  0
    8.1865   -0.0918    0.0000 C   0  0  0  0  0  0  0  0  0  0  0  0
    7.4406    1.2096    0.0000 C   0  0  0  0  0  0  0  0  0  0  0  0
    5.9406    1.2143    0.0000 C   0  0  0  0  0  0  0  0  0  0  0  0
    2.9406    1.2238    0.0000 C   0  0  0  0  0  0  0  0  0  0  0  0
    1.4406    1.2286    0.0000 C   0  0  0  0  0  0  0  0  0  0  0  0
   -1.4600    1.2902    0.0000 C   0  0  0  0  0  0  0  0  0  0  0  0
   -2.9213    1.6286    0.0000 C   0  0  0  0  0  0  0  0  0  0  0  0
   -3.2505    3.0920    0.0000 O   0  0  0  0  0  0  0  0  0  0  0  0
  1  2  1  0
  2  3  2  0
  3  4  1  0
  4  5  2  0
  5  6  1  0
  6  7  2  0
  6  8  1  0
  8  9  1  0
  9 10  1  0
 11 10  1  6
 11 12  1  0
 12 13  1  0
 13 14  1  0
 14 15  1  1
 15 16  2  0
 16 17  1  0
 17 18  2  0
 18 19  1  0
 19 20  2  0
 14 21  1  0
 21 22  1  0
 10 23  1  0
 23 24  1  0
 24 25  1  0
  7  2  1  0
 22 11  1  0
 24  5  1  0
 20 15  1  0
M  END
>  <ChemBL_ID>  (132) 
CHEMBL1289954

>  <Ki>  (132) 
8.9

>  <database>  (132) 
SRSLDB

$$$$

     RDKit          2D

 32 36  0  0  0  0  0  0  0  0999 V2000
  -11.9197    0.4695    0.0000 F   0  0  0  0  0  0  0  0  0  0  0  0
  -10.4356    0.2520    0.0000 C   0  0  0  0  0  0  0  0  0  0  0  0
   -9.5052    1.4286    0.0000 C   0  0  0  0  0  0  0  0  0  0  0  0
   -8.0210    1.2112    0.0000 C   0  0  0  0  0  0  0  0  0  0  0  0
   -7.4673   -0.1828    0.0000 C   0  0  0  0  0  0  0  0  0  0  0  0
   -5.9831   -0.4003    0.0000 N   0  0  0  0  0  0  0  0  0  0  0  0
   -5.4293   -1.7943    0.0000 C   0  0  0  0  0  0  0  0  0  0  0  0
   -3.9452   -2.0118    0.0000 C   0  0  0  0  0  0  0  0  0  0  0  0
   -3.0148   -0.8352    0.0000 N   0  0  0  0  0  0  0  0  0  0  0  0
   -1.5306   -1.0526    0.0000 C   0  0  0  0  0  0  0  0  0  0  0  0
   -0.6002    0.1240    0.0000 C   0  0  0  0  0  0  0  0  0  0  0  0
    0.8839   -0.0934    0.0000 C   0  0  0  0  0  0  0  0  0  0  0  0
    1.8143    1.0832    0.0000 C   0  0  0  0  0  0  0  0  0  0  0  0
    3.2985    0.8657    0.0000 N   0  0  0  0  0  0  0  0  0  0  0  0
    3.9949   -0.4628    0.0000 C   0  0  0  0  0  0  0  0  0  0  0  0
    5.4736   -0.2109    0.0000 C   0  0  0  0  0  0  0  0  0  0  0  0
    6.5465   -1.2592    0.0000 C   0  0  0  0  0  0  0  0  0  0  0  0
    6.1751   -2.7125    0.0000 C   0  0  0  0  0  0  0  0  0  0  0  0
    7.2480   -3.7608    0.0000 C   0  0  0  0  0  0  0  0  0  0  0  0
    8.6923   -3.3557    0.0000 C   0  0  0  0  0  0  0  0  0  0  0  0
    9.0637   -1.9025    0.0000 C   0  0  0  0  0  0  0  0  0  0  0  0
    7.9908   -0.8542    0.0000 C   0  0  0  0  0  0  0  0  0  0  0  0
    5.6911    1.2732    0.0000 C   0  0  0  0  0  0  0  0  0  0  0  0
    6.9395    2.1047    0.0000 C   0  0  0  0  0  0  0  0  0  0  0  0
    6.8436    3.6017    0.0000 C   0  0  0  0  0  0  0  0  0  0  0  0
    5.4993    4.2671    0.0000 C   0  0  0  0  0  0  0  0  0  0  0  0
    4.2508    3.4356    0.0000 C   0  0  0  0  0  0  0  0  0  0  0  0
    4.3467    1.9387    0.0000 C   0  0  0  0  0  0  0  0  0  0  0  0
   -3.5686    0.5589    0.0000 C   0  0  0  0  0  0  0  0  0  0  0  0
   -5.0527    0.7763    0.0000 C   0  0  0  0  0  0  0  0  0  0  0  0
   -8.3976   -1.3595    0.0000 C   0  0  0  0  0  0  0  0  0  0  0  0
   -9.8818   -1.1420    0.0000 C   0  0  0  0  0  0  0  0  0  0  0  0
  1  2  1  0
  2  3  2  0
  3  4  1  0
  4  5  2  0
  5  6  1  0
  6  7  1  0
  7  8  1  0
  8  9  1  0
  9 10  1  0
 10 11  1  0
 11 12  1  0
 12 13  1  0
 13 14  1  0
 14 15  1  0
 15 16  2  0
 16 17  1  0
 17 18  2  0
 18 19  1  0
 19 20  2  0
 20 21  1  0
 21 22  2  0
 16 23  1  0
 23 24  2  0
 24 25  1  0
 25 26  2  0
 26 27  1  0
 27 28  2  0
  9 29  1  0
 29 30  1  0
  5 31  1  0
 31 32  2  0
 32  2  1  0
 30  6  1  0
 28 14  1  0
 22 17  1  0
 28 23  1  0
M  END
>  <ChemBL_ID>  (133) 
CHEMBL1831162

>  <Ki>  (133) 
9.96

>  <database>  (133) 
SRSLDB

$$$$

     RDKit          2D

 31 34  0  0  0  0  0  0  0  0999 V2000
  -10.8019    0.3655    0.0000 C   0  0  0  0  0  0  0  0  0  0  0  0
   -9.3040    0.2867    0.0000 C   0  0  0  0  0  0  0  0  0  0  0  0
   -8.4868    1.5446    0.0000 C   0  0  0  0  0  0  0  0  0  0  0  0
   -6.9889    1.4658    0.0000 C   0  0  0  0  0  0  0  0  0  0  0  0
   -6.3081    0.1292    0.0000 C   0  0  0  0  0  0  0  0  0  0  0  0
   -4.8102    0.0504    0.0000 C   0  0  0  0  0  0  0  0  0  0  0  0
   -4.1295   -1.2863    0.0000 N   0  0  0  0  0  0  0  0  0  0  0  0
   -4.9467   -2.5441    0.0000 C   0  0  0  0  0  0  0  0  0  0  0  0
   -2.6315   -1.3650    0.0000 C   0  0  0  0  0  0  0  0  0  0  0  0
   -1.8143   -0.1072    0.0000 C   0  0  0  0  0  0  0  0  0  0  0  0
   -0.3164   -0.1860    0.0000 C   0  0  0  0  0  0  0  0  0  0  0  0
    0.5008    1.0719    0.0000 C   0  0  0  0  0  0  0  0  0  0  0  0
    1.9987    0.9931    0.0000 C   0  0  0  0  0  0  0  0  0  0  0  0
    2.8154   -0.2651    0.0000 C   0  0  0  0  0  0  0  0  0  0  0  0
    4.2644    0.1229    0.0000 N   0  0  0  0  0  0  0  0  0  0  0  0
    5.4299   -0.8213    0.0000 C   0  0  0  0  0  0  0  0  0  0  0  0
    5.1950   -2.3028    0.0000 C   0  0  0  0  0  0  0  0  0  0  0  0
    6.3605   -3.2470    0.0000 C   0  0  0  0  0  0  0  0  0  0  0  0
    7.7610   -2.7097    0.0000 C   0  0  0  0  0  0  0  0  0  0  0  0
    8.9266   -3.6539    0.0000 F   0  0  0  0  0  0  0  0  0  0  0  0
    7.9959   -1.2282    0.0000 C   0  0  0  0  0  0  0  0  0  0  0  0
    6.8304   -0.2840    0.0000 C   0  0  0  0  0  0  0  0  0  0  0  0
    4.3432    1.6208    0.0000 C   0  0  0  0  0  0  0  0  0  0  0  0
    5.5091    2.5646    0.0000 C   0  0  0  0  0  0  0  0  0  0  0  0
    5.2747    4.0462    0.0000 C   0  0  0  0  0  0  0  0  0  0  0  0
    3.8744    4.5840    0.0000 C   0  0  0  0  0  0  0  0  0  0  0  0
    2.7085    3.6402    0.0000 C   0  0  0  0  0  0  0  0  0  0  0  0
    2.9429    2.1586    0.0000 C   0  0  0  0  0  0  0  0  0  0  0  0
   -7.1253   -1.1287    0.0000 C   0  0  0  0  0  0  0  0  0  0  0  0
   -6.4446   -2.4653    0.0000 C   0  0  0  0  0  0  0  0  0  0  0  0
   -8.6233   -1.0499    0.0000 C   0  0  0  0  0  0  0  0  0  0  0  0
  1  2  1  0
  2  3  2  0
  3  4  1  0
  4  5  2  0
  5  6  1  0
  6  7  1  0
  7  8  1  0
  7  9  1  0
  9 10  1  0
 10 11  1  0
 11 12  1  0
 12 13  1  0
 13 14  2  0
 14 15  1  0
 15 16  1  0
 16 17  2  0
 17 18  1  0
 18 19  2  0
 19 20  1  0
 19 21  1  0
 21 22  2  0
 15 23  1  0
 23 24  2  0
 24 25  1  0
 25 26  2  0
 26 27  1  0
 27 28  2  0
  5 29  1  0
 29 30  1  0
 29 31  2  0
 31  2  1  0
 28 13  1  0
 22 16  1  0
 28 23  1  0
M  END
>  <ChemBL_ID>  (134) 
CHEMBL473990

>  <Ki>  (134) 
5.9

>  <database>  (134) 
SRSLDB

$$$$

     RDKit          2D

 35 38  0  0  0  0  0  0  0  0999 V2000
   -4.3954   -2.4621    0.0000 C   0  0  0  0  0  0  0  0  0  0  0  0
   -2.9852   -1.9509    0.0000 O   0  0  0  0  0  0  0  0  0  0  0  0
   -2.7229   -0.4740    0.0000 C   0  0  0  0  0  0  0  0  0  0  0  0
   -3.8708    0.4916    0.0000 C   0  0  0  0  0  0  0  0  0  0  0  0
   -3.6085    1.9685    0.0000 C   0  0  0  0  0  0  0  0  0  0  0  0
   -2.1983    2.4798    0.0000 C   0  0  0  0  0  0  0  0  0  0  0  0
   -1.9360    3.9567    0.0000 C   0  0  0  0  0  0  0  0  0  0  0  0
   -1.0504    1.5142    0.0000 C   0  0  0  0  0  0  0  0  0  0  0  0
   -1.3127    0.0373    0.0000 C   0  0  0  0  0  0  0  0  0  0  0  0
   -0.1649   -0.9283    0.0000 N   0  0  0  0  0  0  0  0  0  0  0  0
    1.2453   -0.4171    0.0000 C   0  0  0  0  0  0  0  0  0  0  0  0
    1.5076    1.0598    0.0000 O   0  0  0  0  0  0  0  0  0  0  0  0
    2.3932   -1.3827    0.0000 O   0  0  0  0  0  0  0  0  0  0  0  0
    3.8033   -0.8714    0.0000 C   0  0  0  0  0  0  0  0  0  0  0  0
    4.9512   -1.8370    0.0000 C   0  0  0  0  0  0  0  0  0  0  0  0
    6.3614   -1.3257    0.0000 C   0  0  0  0  0  0  0  0  0  0  0  0
    7.7716   -0.8145    0.0000 C   0  0  0  0  0  0  0  0  0  0  0  0
    8.0339    0.6624    0.0000 C   0  0  0  0  0  0  0  0  0  0  0  0
    6.8860    1.6280    0.0000 C   0  0  0  0  0  0  0  0  0  0  0  0
    5.4758    1.1168    0.0000 C   0  0  0  0  0  0  0  0  0  0  0  0
    4.0656    0.6055    0.0000 C   0  0  0  0  0  0  0  0  0  0  0  0
    5.2135   -0.3601    0.0000 N   0  0  0  0  0  0  0  0  0  0  0  0
    3.8033   -0.8714    0.0000 C   0  0  0  0  0  0  0  0  0  0  0  0
    2.6555    0.0942    0.0000 C   0  0  0  0  0  0  0  0  0  0  0  0
    1.2453   -0.4171    0.0000 C   0  0  0  0  0  0  0  0  0  0  0  0
    0.0974    0.5486    0.0000 C   0  0  0  0  0  0  0  0  0  0  0  0
   -1.3127    0.0373    0.0000 N   0  0  0  0  0  0  0  0  0  0  0  0
   -2.4606    1.0029    0.0000 C   0  0  0  0  0  0  0  0  0  0  0  0
   -3.8708    0.4916    0.0000 C   0  0  0  0  0  0  0  0  0  0  0  0
   -5.0187    1.4572    0.0000 C   0  0  0  0  0  0  0  0  0  0  0  0
   -6.4288    0.9460    0.0000 C   0  0  0  0  0  0  0  0  0  0  0  0
   -6.6911   -0.5309    0.0000 C   0  0  0  0  0  0  0  0  0  0  0  0
   -5.5433   -1.4965    0.0000 C   0  0  0  0  0  0  0  0  0  0  0  0
   -5.8056   -2.9734    0.0000 Br  0  0  0  0  0  0  0  0  0  0  0  0
   -4.1331   -0.9853    0.0000 C   0  0  0  0  0  0  0  0  0  0  0  0
  1  2  1  0
  2  3  1  0
  3  4  2  0
  4  5  1  0
  5  6  2  0
  6  7  1  0
  6  8  1  0
  8  9  2  0
  9 10  1  0
 10 11  1  0
 11 12  2  0
 11 13  1  0
 13 14  1  0
 14 15  1  0
 15 16  1  0
 16 17  1  0
 17 18  1  0
 18 19  1  0
 19 20  1  0
 20 21  1  0
 20 22  1  0
 22 23  1  0
 23 24  1  0
 24 25  1  0
 25 26  1  0
 26 27  1  0
 27 28  1  0
 28 29  1  0
 29 30  2  0
 30 31  1  0
 31 32  2  0
 32 33  1  0
 33 34  1  0
 33 35  2  0
  9  3  1  0
 21 14  1  0
 35 29  1  0
 22 16  1  0
M  END
>  <Ki>  (135) 
3.06

>  <database>  (135) 
SRSLDB

$$$$

     RDKit          2D

 32 36  0  0  0  0  0  0  0  0999 V2000
    2.4692   -4.1074    0.0000 C   0  0  0  0  0  0  0  0  0  0  0  0
    2.4207   -2.6081    0.0000 C   0  0  0  0  0  0  0  0  0  0  0  0
    1.1793   -1.7662    0.0000 N   0  0  0  0  0  0  0  0  0  0  0  0
    1.5964   -0.3254    0.0000 N   0  0  0  0  0  0  0  0  0  0  0  0
    0.6759    0.8590    0.0000 C   0  0  0  0  0  0  0  0  0  0  0  0
    1.2413    2.2483    0.0000 C   0  0  0  0  0  0  0  0  0  0  0  0
    0.3208    3.4327    0.0000 C   0  0  0  0  0  0  0  0  0  0  0  0
   -1.1651    3.2277    0.0000 C   0  0  0  0  0  0  0  0  0  0  0  0
   -2.0856    4.4120    0.0000 C   0  0  0  0  0  0  0  0  0  0  0  0
   -1.5202    5.8014    0.0000 N   0  0  0  0  0  0  0  0  0  0  0  0
   -3.5716    4.2070    0.0000 O   0  0  0  0  0  0  0  0  0  0  0  0
   -1.7306    1.8383    0.0000 C   0  0  0  0  0  0  0  0  0  0  0  0
   -3.2165    1.6333    0.0000 N   0  0  0  0  0  0  0  0  0  0  0  0
   -3.7819    0.2440    0.0000 C   0  0  0  0  0  0  0  0  0  0  0  0
   -5.2678    0.0390    0.0000 C   0  0  0  0  0  0  0  0  0  0  0  0
   -5.8333   -1.3504    0.0000 C   0  0  0  0  0  0  0  0  0  0  0  0
   -6.3987   -2.7397    0.0000 C   0  0  0  0  0  0  0  0  0  0  0  0
   -5.4782   -3.9241    0.0000 C   0  0  0  0  0  0  0  0  0  0  0  0
   -3.9923   -3.7191    0.0000 C   0  0  0  0  0  0  0  0  0  0  0  0
   -3.4268   -2.3297    0.0000 C   0  0  0  0  0  0  0  0  0  0  0  0
   -2.8614   -0.9404    0.0000 C   0  0  0  0  0  0  0  0  0  0  0  0
   -4.3473   -1.1454    0.0000 N   0  0  0  0  0  0  0  0  0  0  0  0
   -0.8101    0.6540    0.0000 C   0  0  0  0  0  0  0  0  0  0  0  0
    3.0956   -0.2768    0.0000 C   0  0  0  0  0  0  0  0  0  0  0  0
    3.6050   -1.6876    0.0000 C   0  0  0  0  0  0  0  0  0  0  0  0
    5.0816   -1.9519    0.0000 C   0  0  0  0  0  0  0  0  0  0  0  0
    5.5910   -3.3627    0.0000 O   0  0  0  0  0  0  0  0  0  0  0  0
    6.0487   -0.8052    0.0000 C   0  0  0  0  0  0  0  0  0  0  0  0
    5.5392    0.6056    0.0000 C   0  0  0  0  0  0  0  0  0  0  0  0
    5.5430    2.1056    0.0000 C   0  0  0  0  0  0  0  0  0  0  0  0
    7.0171    0.8623    0.0000 C   0  0  0  0  0  0  0  0  0  0  0  0
    4.0627    0.8698    0.0000 C   0  0  0  0  0  0  0  0  0  0  0  0
  1  2  1  0
  2  3  2  0
  3  4  1  0
  4  5  1  0
  5  6  2  0
  6  7  1  0
  7  8  2  0
  8  9  1  0
  9 10  1  0
  9 11  2  0
  8 12  1  0
 12 13  1  0
 13 14  1  0
 14 15  1  0
 15 16  1  0
 16 17  1  0
 17 18  1  0
 18 19  1  0
 19 20  1  0
 20 21  1  0
 20 22  1  0
 12 23  2  0
  4 24  1  0
 24 25  2  0
 25 26  1  0
 26 27  2  0
 26 28  1  0
 28 29  1  0
 29 30  1  0
 29 31  1  0
 29 32  1  0
 25  2  1  0
 23  5  1  0
 32 24  1  0
 21 14  1  0
 22 16  1  0
M  END
>  <Ki>  (136) 
46.6

>  <database>  (136) 
SRSLDB

$$$$

     RDKit          2D

 32 35  0  0  0  0  0  0  0  0999 V2000
   -5.2700   -3.7821    0.0000 C   0  0  0  0  0  0  0  0  0  0  0  0
   -3.9413   -3.0859    0.0000 O   0  0  0  0  0  0  0  0  0  0  0  0
   -3.8798   -1.5872    0.0000 C   0  0  0  0  0  0  0  0  0  0  0  0
   -5.1470   -0.7846    0.0000 C   0  0  0  0  0  0  0  0  0  0  0  0
   -5.0855    0.7142    0.0000 C   0  0  0  0  0  0  0  0  0  0  0  0
   -3.7568    1.4103    0.0000 C   0  0  0  0  0  0  0  0  0  0  0  0
   -3.6953    2.9090    0.0000 C   0  0  0  0  0  0  0  0  0  0  0  0
   -2.4896    0.6077    0.0000 C   0  0  0  0  0  0  0  0  0  0  0  0
   -2.5511   -0.8911    0.0000 C   0  0  0  0  0  0  0  0  0  0  0  0
   -1.2839   -1.6937    0.0000 N   0  0  0  0  0  0  0  0  0  0  0  0
    0.0448   -0.9976    0.0000 C   0  0  0  0  0  0  0  0  0  0  0  0
    0.1063    0.5012    0.0000 O   0  0  0  0  0  0  0  0  0  0  0  0
    1.3120   -1.8002    0.0000 O   0  0  0  0  0  0  0  0  0  0  0  0
    2.6407   -1.1041    0.0000 C   0  0  0  0  0  0  0  0  0  0  0  0
    3.9079   -1.9067    0.0000 C   0  0  0  0  0  0  0  0  0  0  0  0
    5.2366   -1.2106    0.0000 C   0  0  0  0  0  0  0  0  0  0  0  0
    6.5653   -0.5144    0.0000 C   0  0  0  0  0  0  0  0  0  0  0  0
    6.6268    0.9843    0.0000 C   0  0  0  0  0  0  0  0  0  0  0  0
    5.3596    1.7869    0.0000 C   0  0  0  0  0  0  0  0  0  0  0  0
    4.0309    1.0908    0.0000 C   0  0  0  0  0  0  0  0  0  0  0  0
    2.7022    0.3947    0.0000 C   0  0  0  0  0  0  0  0  0  0  0  0
    3.9694   -0.4079    0.0000 N   0  0  0  0  0  0  0  0  0  0  0  0
    2.6407   -1.1041    0.0000 C   0  0  0  0  0  0  0  0  0  0  0  0
    1.3735   -0.3014    0.0000 C   0  0  0  0  0  0  0  0  0  0  0  0
    1.4350    1.1973    0.0000 C   0  0  0  0  0  0  0  0  0  0  0  0
    0.1678    1.9999    0.0000 C   0  0  0  0  0  0  0  0  0  0  0  0
   -1.1609    1.3038    0.0000 C   0  0  0  0  0  0  0  0  0  0  0  0
   -2.4281    2.1064    0.0000 N   0  0  0  0  0  4  0  0  0  0  0  0
   -3.8858    1.7525    0.0000 O   0  0  0  0  0  0  0  0  0  0  0  0
   -2.3666    3.6051    0.0000 O   0  0  0  0  0  1  0  0  0  0  0  0
   -1.2224   -0.1950    0.0000 C   0  0  0  0  0  0  0  0  0  0  0  0
    0.0448   -0.9976    0.0000 C   0  0  0  0  0  0  0  0  0  0  0  0
  1  2  1  0
  2  3  1  0
  3  4  2  0
  4  5  1  0
  5  6  2  0
  6  7  1  0
  6  8  1  0
  8  9  2  0
  9 10  1  0
 10 11  1  0
 11 12  2  0
 11 13  1  0
 13 14  1  0
 14 15  1  0
 15 16  1  0
 16 17  1  0
 17 18  1  0
 18 19  1  0
 19 20  1  0
 20 21  1  0
 20 22  1  0
 22 23  1  0
 23 24  1  0
 24 25  2  0
 25 26  1  0
 26 27  2  0
 27 28  1  0
 28 29  2  0
 28 30  1  0
 27 31  1  0
 31 32  2  0
  9  3  1  0
 21 14  1  0
 32 24  1  0
 22 16  1  0
M  CHG  2  28   1  30  -1
M  END
>  <Ki>  (137) 
25.2

>  <database>  (137) 
SRSLDB

$$$$

     RDKit          2D

 34 38  0  0  0  0  0  0  0  0999 V2000
   -8.1512    2.5923    0.0000 N   0  0  0  0  0  0  0  0  0  0  0  0
   -7.1997    1.4327    0.0000 C   0  0  0  0  0  0  0  0  0  0  0  0
   -6.2483    0.2730    0.0000 C   0  0  0  0  0  0  0  0  0  0  0  0
   -7.5555   -0.4626    0.0000 C   0  0  0  0  0  0  0  0  0  0  0  0
   -8.8462    0.3017    0.0000 C   0  0  0  0  0  0  0  0  0  0  0  0
  -10.1534   -0.4340    0.0000 C   0  0  0  0  0  0  0  0  0  0  0  0
  -10.1699   -1.9339    0.0000 C   0  0  0  0  0  0  0  0  0  0  0  0
   -8.8793   -2.6981    0.0000 C   0  0  0  0  0  0  0  0  0  0  0  0
   -7.5720   -1.9625    0.0000 C   0  0  0  0  0  0  0  0  0  0  0  0
   -5.7508   -1.1421    0.0000 C   0  0  0  0  0  0  0  0  0  0  0  0
   -4.2765   -1.4188    0.0000 C   0  0  0  0  0  0  0  0  0  0  0  0
   -3.2998   -0.2805    0.0000 N   0  0  0  0  0  0  0  0  0  0  0  0
   -1.8255   -0.5572    0.0000 C   0  0  0  0  0  0  0  0  0  0  0  0
   -0.8487    0.5812    0.0000 C   0  0  0  0  0  0  0  0  0  0  0  0
    0.6255    0.3044    0.0000 C   0  0  0  0  0  0  0  0  0  0  0  0
    1.6023    1.4428    0.0000 C   0  0  0  0  0  0  0  0  0  0  0  0
    3.0766    1.1660    0.0000 C   0  0  0  0  0  0  0  0  0  0  0  0
    3.7192   -0.1893    0.0000 C   0  0  0  0  0  0  0  0  0  0  0  0
    5.2068    0.0031    0.0000 N   0  0  0  0  0  0  0  0  0  0  0  0
    6.2369   -1.0874    0.0000 C   0  0  0  0  0  0  0  0  0  0  0  0
    5.8075   -2.5246    0.0000 C   0  0  0  0  0  0  0  0  0  0  0  0
    6.8376   -3.6151    0.0000 C   0  0  0  0  0  0  0  0  0  0  0  0
    8.2969   -3.2682    0.0000 C   0  0  0  0  0  0  0  0  0  0  0  0
    9.3270   -4.3587    0.0000 I   0  0  0  0  0  0  0  0  0  0  0  0
    8.7263   -1.8310    0.0000 C   0  0  0  0  0  0  0  0  0  0  0  0
    7.6962   -0.7406    0.0000 C   0  0  0  0  0  0  0  0  0  0  0  0
    5.4836    1.4773    0.0000 C   0  0  0  0  0  0  0  0  0  0  0  0
    6.7643    2.2581    0.0000 C   0  0  0  0  0  0  0  0  0  0  0  0
    6.7285    3.7577    0.0000 C   0  0  0  0  0  0  0  0  0  0  0  0
    5.4119    4.4765    0.0000 C   0  0  0  0  0  0  0  0  0  0  0  0
    4.1312    3.6956    0.0000 C   0  0  0  0  0  0  0  0  0  0  0  0
    4.1670    2.1961    0.0000 C   0  0  0  0  0  0  0  0  0  0  0  0
   -3.7972    1.1347    0.0000 C   0  0  0  0  0  0  0  0  0  0  0  0
   -5.2715    1.4114    0.0000 C   0  0  0  0  0  0  0  0  0  0  0  0
  1  2  3  0
  2  3  1  0
  3  4  1  0
  4  5  2  0
  5  6  1  0
  6  7  2  0
  7  8  1  0
  8  9  2  0
  3 10  1  0
 10 11  1  0
 11 12  1  0
 12 13  1  0
 13 14  1  0
 14 15  1  0
 15 16  1  0
 16 17  1  0
 17 18  2  0
 18 19  1  0
 19 20  1  0
 20 21  2  0
 21 22  1  0
 22 23  2  0
 23 24  1  0
 23 25  1  0
 25 26  2  0
 19 27  1  0
 27 28  2  0
 28 29  1  0
 29 30  2  0
 30 31  1  0
 31 32  2  0
 12 33  1  0
 33 34  1  0
 34  3  1  0
  9  4  1  0
 32 17  1  0
 26 20  1  0
 32 27  1  0
M  END
>  <Ki>  (138) 
18.5

>  <database>  (138) 
SRSLDB

$$$$

     RDKit          2D

 30 34  0  0  0  0  0  0  0  0999 V2000
   -2.4522    5.2374    0.0000 C   0  0  0  0  0  0  0  0  0  0  0  0
   -1.5042    4.0749    0.0000 O   0  0  0  0  0  0  0  0  0  0  0  0
   -2.0370    2.6727    0.0000 C   0  0  0  0  0  0  0  0  0  0  0  0
   -3.5177    2.4330    0.0000 O   0  0  0  0  0  0  0  0  0  0  0  0
   -1.0890    1.5102    0.0000 C   0  0  0  0  0  0  0  0  0  0  0  0
   -2.0692    0.3748    0.0000 C   0  0  0  0  0  0  0  0  0  0  0  0
   -3.5426    0.6560    0.0000 C   0  0  0  0  0  0  0  0  0  0  0  0
   -4.5229   -0.4795    0.0000 C   0  0  0  0  0  0  0  0  0  0  0  0
   -4.0297   -1.8961    0.0000 C   0  0  0  0  0  0  0  0  0  0  0  0
   -2.5562   -2.1772    0.0000 C   0  0  0  0  0  0  0  0  0  0  0  0
   -1.5760   -1.0418    0.0000 C   0  0  0  0  0  0  0  0  0  0  0  0
    0.2204    2.2419    0.0000 C   0  0  0  0  0  0  0  0  0  0  0  0
    0.1994    0.7420    0.0000 C   0  0  0  0  0  0  0  0  0  0  0  0
    0.9311   -0.5674    0.0000 C   0  0  0  0  0  0  0  0  0  0  0  0
    0.1629   -1.8558    0.0000 N   0  0  0  0  0  0  0  0  0  0  0  0
    0.7537   -3.2345    0.0000 C   0  0  0  0  0  0  0  0  0  0  0  0
   -0.3750   -4.2225    0.0000 C   0  0  0  0  0  0  0  0  0  0  0  0
   -1.6634   -3.4543    0.0000 C   0  0  0  0  0  0  0  0  0  0  0  0
   -1.3309   -1.9916    0.0000 C   0  0  0  0  0  0  0  0  0  0  0  0
   -0.7097   -0.6156    0.0000 C   0  0  0  0  0  0  0  0  0  0  0  0
    0.7902   -0.6367    0.0000 C   0  0  0  0  0  0  0  0  0  0  0  0
    0.1993    0.7420    0.0000 O   0  0  0  0  0  0  0  0  0  0  0  0
    2.2068   -0.1435    0.0000 C   0  0  0  0  0  0  0  0  0  0  0  0
    3.3422   -1.1237    0.0000 C   0  0  0  0  0  0  0  0  0  0  0  0
    4.7588   -0.6305    0.0000 C   0  0  0  0  0  0  0  0  0  0  0  0
    5.0400    0.8429    0.0000 C   0  0  0  0  0  0  0  0  0  0  0  0
    6.4566    1.3361    0.0000 Cl  0  0  0  0  0  0  0  0  0  0  0  0
    3.9046    1.8231    0.0000 C   0  0  0  0  0  0  0  0  0  0  0  0
    2.4880    1.3299    0.0000 C   0  0  0  0  0  0  0  0  0  0  0  0
    1.5219   -1.9461    0.0000 C   0  0  0  0  0  0  0  0  0  0  0  0
  1  2  1  0
  2  3  1  0
  3  4  2  0
  5  3  1  1
  5  6  1  0
  6  7  2  0
  7  8  1  0
  8  9  2  0
  9 10  1  0
 10 11  2  0
  5 12  1  0
 12 13  1  0
 13 14  1  1
 14 15  1  0
 15 16  1  0
 16 17  1  0
 17 18  1  0
 18 19  1  0
 19 20  1  0
 20 21  1  0
 21 22  1  0
 21 23  1  0
 23 24  2  0
 24 25  1  0
 25 26  2  0
 26 27  1  0
 26 28  1  0
 28 29  2  0
 21 30  1  0
 13  5  1  0
 19 15  1  0
 29 23  1  0
 11  6  1  0
 30 16  1  0
M  END
>  <ChemBL_ID>  (139) 
CHEMBL3084361

>  <Ki>  (139) 
25.2

>  <database>  (139) 
SRSLDB

$$$$

     RDKit          2D

 24 27  0  0  0  0  0  0  0  0999 V2000
   -8.4105   -0.9650    0.0000 C   0  0  0  0  0  0  0  0  0  0  0  0
   -8.0482    0.4906    0.0000 C   0  0  0  0  0  0  0  0  0  0  0  0
   -6.6064    0.9046    0.0000 C   0  0  0  0  0  0  0  0  0  0  0  0
   -5.5270   -0.1370    0.0000 C   0  0  0  0  0  0  0  0  0  0  0  0
   -4.0853    0.2769    0.0000 N   0  0  0  0  0  0  0  0  0  0  0  0
   -3.0059   -0.7647    0.0000 C   0  0  0  0  0  0  0  0  0  0  0  0
   -1.5642   -0.3507    0.0000 C   0  0  0  0  0  0  0  0  0  0  0  0
   -1.2018    1.1049    0.0000 N   0  0  0  0  0  0  0  0  0  0  0  0
    0.2400    1.5188    0.0000 C   0  0  0  0  0  0  0  0  0  0  0  0
    1.3193    0.4772    0.0000 C   0  0  0  0  0  0  0  0  0  0  0  0
    2.7611    0.8912    0.0000 C   0  0  0  0  0  0  0  0  0  0  0  0
    3.8405   -0.1504    0.0000 N   0  0  0  0  0  0  0  0  0  0  0  0
    3.6322   -1.6359    0.0000 C   0  0  0  0  0  0  0  0  0  0  0  0
    4.9807   -2.2930    0.0000 C   0  0  0  0  0  0  0  0  0  0  0  0
    6.0223   -1.2136    0.0000 C   0  0  0  0  0  0  0  0  0  0  0  0
    7.5214   -1.2654    0.0000 C   0  0  0  0  0  0  0  0  0  0  0  0
    8.3158    0.0070    0.0000 C   0  0  0  0  0  0  0  0  0  0  0  0
    7.6111    1.3311    0.0000 C   0  0  0  0  0  0  0  0  0  0  0  0
    6.1120    1.3830    0.0000 C   0  0  0  0  0  0  0  0  0  0  0  0
    5.3176    0.1106    0.0000 C   0  0  0  0  0  0  0  0  0  0  0  0
   -2.2812    2.1465    0.0000 C   0  0  0  0  0  0  0  0  0  0  0  0
   -3.7229    1.7325    0.0000 C   0  0  0  0  0  0  0  0  0  0  0  0
   -5.8894   -1.5926    0.0000 C   0  0  0  0  0  0  0  0  0  0  0  0
   -7.3311   -2.0066    0.0000 C   0  0  0  0  0  0  0  0  0  0  0  0
  1  2  2  0
  2  3  1  0
  3  4  2  0
  4  5  1  0
  5  6  1  0
  6  7  1  0
  7  8  1  0
  8  9  1  0
  9 10  1  0
 10 11  1  0
 11 12  1  0
 12 13  1  0
 13 14  2  0
 14 15  1  0
 15 16  2  0
 16 17  1  0
 17 18  2  0
 18 19  1  0
 19 20  2  0
  8 21  1  0
 21 22  1  0
  4 23  1  0
 23 24  2  0
 24  1  1  0
 22  5  1  0
 20 12  1  0
 20 15  1  0
M  END
>  <Ki>  (140) 
75.0

>  <database>  (140) 
SRSLDB

$$$$

     RDKit          2D

 33 36  0  0  0  0  0  0  0  0999 V2000
  -11.9505    0.1232    0.0000 C   0  0  0  0  0  0  0  0  0  0  0  0
  -10.9134   -0.9605    0.0000 O   0  0  0  0  0  0  0  0  0  0  0  0
   -9.4563   -0.6042    0.0000 C   0  0  0  0  0  0  0  0  0  0  0  0
   -9.0364    0.8358    0.0000 C   0  0  0  0  0  0  0  0  0  0  0  0
   -7.5793    1.1921    0.0000 C   0  0  0  0  0  0  0  0  0  0  0  0
   -6.5422    0.1084    0.0000 C   0  0  0  0  0  0  0  0  0  0  0  0
   -6.9621   -1.3316    0.0000 C   0  0  0  0  0  0  0  0  0  0  0  0
   -8.4192   -1.6879    0.0000 C   0  0  0  0  0  0  0  0  0  0  0  0
   -8.8392   -3.1279    0.0000 O   0  0  0  0  0  0  0  0  0  0  0  0
   -7.8020   -4.2116    0.0000 C   0  0  0  0  0  0  0  0  0  0  0  0
   -5.0851    0.4648    0.0000 C   0  0  0  0  0  0  0  0  0  0  0  0
   -4.6652    1.9048    0.0000 N   0  0  0  0  0  0  0  0  0  0  0  0
   -3.2081    2.2611    0.0000 C   0  0  0  0  0  0  0  0  0  0  0  0
   -2.1710    1.1774    0.0000 C   0  0  0  0  0  0  0  0  0  0  0  0
   -0.7139    1.5337    0.0000 C   0  0  0  0  0  0  0  0  0  0  0  0
    0.3232    0.4500    0.0000 C   0  0  0  0  0  0  0  0  0  0  0  0
    1.7802    0.8063    0.0000 C   0  0  0  0  0  0  0  0  0  0  0  0
    2.8174   -0.2774    0.0000 C   0  0  0  0  0  0  0  0  0  0  0  0
    4.2744    0.0790    0.0000 N   0  0  0  0  0  0  0  0  0  0  0  0
    5.3115   -1.0047    0.0000 C   0  0  0  0  0  0  0  0  0  0  0  0
    4.8916   -2.4447    0.0000 O   0  0  0  0  0  0  0  0  0  0  0  0
    6.7686   -0.6484    0.0000 C   0  0  0  0  0  0  0  0  0  0  0  0
    7.9133   -1.6178    0.0000 C   0  0  0  0  0  0  0  0  0  0  0  0
    9.1890   -0.8286    0.0000 C   0  0  0  0  0  0  0  0  0  0  0  0
   10.6290   -1.2486    0.0000 C   0  0  0  0  0  0  0  0  0  0  0  0
   11.7127   -0.2115    0.0000 C   0  0  0  0  0  0  0  0  0  0  0  0
   13.1527   -0.6314    0.0000 Br  0  0  0  0  0  0  0  0  0  0  0  0
   11.3563    1.2456    0.0000 C   0  0  0  0  0  0  0  0  0  0  0  0
    9.9163    1.6656    0.0000 C   0  0  0  0  0  0  0  0  0  0  0  0
    8.8326    0.6284    0.0000 C   0  0  0  0  0  0  0  0  0  0  0  0
    7.3368    0.7398    0.0000 O   0  0  0  0  0  0  0  0  0  0  0  0
   -5.7023    2.9885    0.0000 C   0  0  0  0  0  0  0  0  0  0  0  0
   -7.1594    2.6321    0.0000 C   0  0  0  0  0  0  0  0  0  0  0  0
  1  2  1  0
  2  3  1  0
  3  4  2  0
  4  5  1  0
  5  6  2  0
  6  7  1  0
  7  8  2  0
  8  9  1  0
  9 10  1  0
  6 11  1  0
 11 12  1  0
 12 13  1  0
 13 14  1  0
 14 15  1  0
 15 16  1  0
 16 17  1  0
 17 18  1  0
 18 19  1  0
 19 20  1  0
 20 21  2  0
 20 22  1  0
 22 23  2  0
 23 24  1  0
 24 25  2  0
 25 26  1  0
 26 27  1  0
 26 28  2  0
 28 29  1  0
 29 30  2  0
 30 31  1  0
 12 32  1  0
 32 33  1  0
  8  3  1  0
 31 22  1  0
 33  5  1  0
 30 24  1  0
M  END
>  <Ki>  (141) 
8.0

>  <database>  (141) 
SRSLDB

$$$$

     RDKit          2D

 27 30  0  0  0  0  0  0  0  0999 V2000
    7.1713    2.5509    0.0000 C   0  0  0  0  0  0  0  0  0  0  0  0
    6.2368    1.3775    0.0000 N   0  0  0  0  0  0  0  0  0  0  0  0
    4.7383    1.4439    0.0000 C   0  0  0  0  0  0  0  0  0  0  0  0
    3.9112    2.6952    0.0000 O   0  0  0  0  0  0  0  0  0  0  0  0
    4.2121    0.0392    0.0000 N   0  0  0  0  0  0  0  0  0  0  0  0
    2.7664   -0.3608    0.0000 C   0  0  0  0  0  0  0  0  0  0  0  0
    1.6972    0.6912    0.0000 C   0  0  0  0  0  0  0  0  0  0  0  0
    0.2515    0.2913    0.0000 C   0  0  0  0  0  0  0  0  0  0  0  0
   -0.8177    1.3433    0.0000 C   0  0  0  0  0  0  0  0  0  0  0  0
   -2.2634    0.9433    0.0000 N   0  0  0  0  0  0  0  0  0  0  0  0
   -3.3327    1.9953    0.0000 C   0  0  0  0  0  0  0  0  0  0  0  0
   -4.7783    1.5954    0.0000 C   0  0  0  0  0  0  0  0  0  0  0  0
   -5.1548    0.1434    0.0000 N   0  0  0  0  0  0  0  0  0  0  0  0
   -6.6005   -0.2566    0.0000 C   0  0  0  0  0  0  0  0  0  0  0  0
   -7.6697    0.7954    0.0000 C   0  0  0  0  0  0  0  0  0  0  0  0
   -9.1154    0.3955    0.0000 C   0  0  0  0  0  0  0  0  0  0  0  0
   -9.4919   -1.0565    0.0000 C   0  0  0  0  0  0  0  0  0  0  0  0
   -8.4226   -2.1086    0.0000 C   0  0  0  0  0  0  0  0  0  0  0  0
   -6.9770   -1.7086    0.0000 C   0  0  0  0  0  0  0  0  0  0  0  0
   -4.0856   -0.9086    0.0000 C   0  0  0  0  0  0  0  0  0  0  0  0
   -2.6399   -0.5087    0.0000 C   0  0  0  0  0  0  0  0  0  0  0  0
    5.3855   -0.8953    0.0000 C   0  0  0  0  0  0  0  0  0  0  0  0
    5.4761   -2.3926    0.0000 C   0  0  0  0  0  0  0  0  0  0  0  0
    6.8181   -3.0627    0.0000 C   0  0  0  0  0  0  0  0  0  0  0  0
    8.0694   -2.2355    0.0000 C   0  0  0  0  0  0  0  0  0  0  0  0
    7.9788   -0.7383    0.0000 C   0  0  0  0  0  0  0  0  0  0  0  0
    6.6368   -0.0682    0.0000 C   0  0  0  0  0  0  0  0  0  0  0  0
  1  2  1  0
  2  3  1  0
  3  4  2  0
  3  5  1  0
  5  6  1  0
  6  7  1  0
  7  8  1  0
  8  9  1  0
  9 10  1  0
 10 11  1  0
 11 12  1  0
 12 13  1  0
 13 14  1  0
 14 15  1  0
 15 16  1  0
 16 17  1  0
 17 18  1  0
 18 19  1  0
 13 20  1  0
 20 21  1  0
  5 22  1  0
 22 23  2  0
 23 24  1  0
 24 25  2  0
 25 26  1  0
 26 27  2  0
 27  2  1  0
 21 10  1  0
 27 22  1  0
 19 14  1  0
M  END
>  <Ki>  (142) 
2.57

>  <database>  (142) 
SRSLDB

$$$$

     RDKit          2D

 32 35  0  0  0  0  0  0  0  0999 V2000
   -7.9686   -1.9794    0.0000 C   0  0  0  0  0  0  0  0  0  0  0  0
   -6.5846   -2.5578    0.0000 O   0  0  0  0  0  0  0  0  0  0  0  0
   -5.3917   -1.6485    0.0000 C   0  0  0  0  0  0  0  0  0  0  0  0
   -5.5827   -0.1607    0.0000 C   0  0  0  0  0  0  0  0  0  0  0  0
   -4.3898    0.7487    0.0000 C   0  0  0  0  0  0  0  0  0  0  0  0
   -3.0058    0.1702    0.0000 C   0  0  0  0  0  0  0  0  0  0  0  0
   -2.8147   -1.3175    0.0000 C   0  0  0  0  0  0  0  0  0  0  0  0
   -4.0077   -2.2269    0.0000 C   0  0  0  0  0  0  0  0  0  0  0  0
   -3.8166   -3.7147    0.0000 O   0  0  0  0  0  0  0  0  0  0  0  0
   -2.4326   -4.2931    0.0000 C   0  0  0  0  0  0  0  0  0  0  0  0
   -1.8129    1.0796    0.0000 C   0  0  0  0  0  0  0  0  0  0  0  0
   -2.0039    2.5674    0.0000 N   0  0  0  0  0  0  0  0  0  0  0  0
   -0.8110    3.4767    0.0000 C   0  0  0  0  0  0  0  0  0  0  0  0
    0.5730    2.8983    0.0000 C   0  0  0  0  0  0  0  0  0  0  0  0
    1.8544    3.6780    0.0000 C   0  0  0  0  0  0  0  0  0  0  0  0
    2.9919    2.7002    0.0000 C   0  0  0  0  0  0  0  0  0  0  0  0
    2.4135    1.3162    0.0000 C   0  0  0  0  0  0  0  0  0  0  0  0
    3.1932    0.0347    0.0000 C   0  0  0  0  0  0  0  0  0  0  0  0
    2.4732   -1.2812    0.0000 C   0  0  0  0  0  0  0  0  0  0  0  0
    3.2529   -2.5627    0.0000 C   0  0  0  0  0  0  0  0  0  0  0  0
    2.5330   -3.8786    0.0000 Br  0  0  0  0  0  0  0  0  0  0  0  0
    4.7525   -2.5282    0.0000 C   0  0  0  0  0  0  0  0  0  0  0  0
    5.4725   -1.2122    0.0000 C   0  0  0  0  0  0  0  0  0  0  0  0
    6.9721   -1.1777    0.0000 O   0  0  0  0  0  0  0  0  0  0  0  0
    7.7517   -2.4592    0.0000 C   0  0  0  0  0  0  0  0  0  0  0  0
    4.6928    0.0692    0.0000 C   0  0  0  0  0  0  0  0  0  0  0  0
    5.4127    1.3852    0.0000 O   0  0  0  0  0  0  0  0  0  0  0  0
    6.9123    1.4196    0.0000 C   0  0  0  0  0  0  0  0  0  0  0  0
    0.9185    1.4386    0.0000 N   0  0  0  0  0  0  0  0  0  0  0  0
   -3.3879    3.1458    0.0000 C   0  0  0  0  0  0  0  0  0  0  0  0
   -3.5790    4.6336    0.0000 C   0  0  0  0  0  0  0  0  0  0  0  0
   -4.5808    2.2365    0.0000 C   0  0  0  0  0  0  0  0  0  0  0  0
  1  2  1  0
  2  3  1  0
  3  4  2  0
  4  5  1  0
  5  6  2  0
  6  7  1  0
  7  8  2  0
  8  9  1  0
  9 10  1  0
  6 11  1  0
 11 12  1  0
 12 13  1  0
 13 14  1  0
 14 15  2  0
 15 16  1  0
 16 17  2  0
 17 18  1  0
 18 19  2  0
 19 20  1  0
 20 21  1  0
 20 22  2  0
 22 23  1  0
 23 24  1  0
 24 25  1  0
 23 26  2  0
 26 27  1  0
 27 28  1  0
 17 29  1  0
 12 30  1  0
 30 31  1  0
 30 32  1  0
  8  3  1  0
 29 14  1  0
 32  5  1  0
 26 18  1  0
M  END
>  <Ki>  (143) 
52.0

>  <database>  (143) 
SRSLDB

$$$$

     RDKit          2D

 23 25  0  0  0  0  0  0  0  0999 V2000
   -1.0077    2.4729    0.0000 O   0  0  0  0  0  0  0  0  0  0  0  0
   -1.3019    1.0021    0.0000 C   0  0  0  0  0  0  0  0  0  0  0  0
   -0.1753    0.0118    0.0000 O   0  0  0  0  0  0  0  0  0  0  0  0
    1.2457    0.4924    0.0000 C   0  0  0  0  0  0  0  0  0  0  0  0
    2.3723   -0.4979    0.0000 C   0  0  0  0  0  0  0  0  0  0  0  0
    3.7933   -0.0173    0.0000 N   0  0  0  0  0  0  0  0  0  0  0  0
    4.9199   -1.0075    0.0000 C   0  0  0  0  0  0  0  0  0  0  0  0
    6.3409   -0.5270    0.0000 C   0  0  0  0  0  0  0  0  0  0  0  0
    6.6351    0.9439    0.0000 O   0  0  0  0  0  0  0  0  0  0  0  0
    5.5085    1.9342    0.0000 C   0  0  0  0  0  0  0  0  0  0  0  0
    4.0875    1.4536    0.0000 C   0  0  0  0  0  0  0  0  0  0  0  0
   -2.7228    0.5215    0.0000 C   0  0  0  0  0  0  0  0  0  0  0  0
   -2.0028   -0.7944    0.0000 C   0  0  0  0  0  0  0  0  0  0  0  0
   -2.7824   -2.0759    0.0000 C   0  0  0  0  0  0  0  0  0  0  0  0
   -2.0624   -3.3918    0.0000 C   0  0  0  0  0  0  0  0  0  0  0  0
   -0.5628   -3.4262    0.0000 C   0  0  0  0  0  0  0  0  0  0  0  0
    0.2168   -2.1447    0.0000 C   0  0  0  0  0  0  0  0  0  0  0  0
   -0.5032   -0.8288    0.0000 C   0  0  0  0  0  0  0  0  0  0  0  0
   -2.9494    2.0043    0.0000 C   0  0  0  0  0  0  0  0  0  0  0  0
   -4.3468    2.5495    0.0000 C   0  0  0  0  0  0  0  0  0  0  0  0
   -5.5177    1.6119    0.0000 C   0  0  0  0  0  0  0  0  0  0  0  0
   -5.2911    0.1291    0.0000 C   0  0  0  0  0  0  0  0  0  0  0  0
   -3.8937   -0.4161    0.0000 C   0  0  0  0  0  0  0  0  0  0  0  0
  1  2  2  0
  2  3  1  0
  3  4  1  0
  4  5  1  0
  5  6  1  0
  6  7  1  0
  7  8  1  0
  8  9  1  0
  9 10  1  0
 10 11  1  0
  2 12  1  0
 12 13  1  0
 13 14  2  0
 14 15  1  0
 15 16  2  0
 16 17  1  0
 17 18  2  0
 12 19  1  0
 19 20  1  0
 20 21  1  0
 21 22  1  0
 22 23  1  0
 11  6  1  0
 23 12  1  0
 18 13  1  0
M  END
>  <Compound_Key>  (144) 
PRE-084

>  <Ki>  (144) 
32100.0

>  <database>  (144) 
NewLiterature

>  <Document_ChEMBL_ID>  (144) 
10.1016/j.bmc.2022.117032

$$$$

     RDKit          2D

 33 36  0  0  0  0  0  0  0  0999 V2000
   -5.3477   -1.9342    0.0000 C   0  0  0  0  0  0  0  0  0  0  0  0
   -3.9171   -1.4830    0.0000 O   0  0  0  0  0  0  0  0  0  0  0  0
   -3.5926   -0.0186    0.0000 C   0  0  0  0  0  0  0  0  0  0  0  0
   -4.6986    0.9947    0.0000 C   0  0  0  0  0  0  0  0  0  0  0  0
   -4.3740    2.4592    0.0000 C   0  0  0  0  0  0  0  0  0  0  0  0
   -2.9435    2.9104    0.0000 C   0  0  0  0  0  0  0  0  0  0  0  0
   -2.6189    4.3748    0.0000 C   0  0  0  0  0  0  0  0  0  0  0  0
   -1.8375    1.8971    0.0000 C   0  0  0  0  0  0  0  0  0  0  0  0
   -2.1620    0.4326    0.0000 C   0  0  0  0  0  0  0  0  0  0  0  0
   -1.0561   -0.5807    0.0000 N   0  0  0  0  0  0  0  0  0  0  0  0
    0.3745   -0.1296    0.0000 C   0  0  0  0  0  0  0  0  0  0  0  0
    0.6990    1.3349    0.0000 O   0  0  0  0  0  0  0  0  0  0  0  0
    1.4805   -1.1429    0.0000 O   0  0  0  0  0  0  0  0  0  0  0  0
    2.9110   -0.6917    0.0000 C   0  0  0  0  0  0  0  0  0  0  0  0
    4.0170   -1.7050    0.0000 C   0  0  0  0  0  0  0  0  0  0  0  0
    5.4476   -1.2538    0.0000 C   0  0  0  0  0  0  0  0  0  0  0  0
    6.8781   -0.8027    0.0000 C   0  0  0  0  0  0  0  0  0  0  0  0
    7.2026    0.6618    0.0000 C   0  0  0  0  0  0  0  0  0  0  0  0
    6.0967    1.6751    0.0000 C   0  0  0  0  0  0  0  0  0  0  0  0
    4.6661    1.2239    0.0000 C   0  0  0  0  0  0  0  0  0  0  0  0
    3.2356    0.7728    0.0000 C   0  0  0  0  0  0  0  0  0  0  0  0
    4.3416   -0.2405    0.0000 N   0  0  0  0  0  0  0  0  0  0  0  0
    2.9110   -0.6917    0.0000 C   0  0  0  0  0  0  0  0  0  0  0  0
    1.8050    0.3216    0.0000 C   0  0  0  0  0  0  0  0  0  0  0  0
    0.3745   -0.1296    0.0000 C   0  0  0  0  0  0  0  0  0  0  0  0
   -0.7315    0.8838    0.0000 C   0  0  0  0  0  0  0  0  0  0  0  0
   -2.1620    0.4326    0.0000 C   0  0  0  0  0  0  0  0  0  0  0  0
   -2.4866   -1.0319    0.0000 C   0  0  0  0  0  0  0  0  0  0  0  0
   -3.9171   -1.4830    0.0000 N   0  0  0  0  0  4  0  0  0  0  0  0
   -5.0231   -0.4697    0.0000 O   0  0  0  0  0  0  0  0  0  0  0  0
   -4.2417   -2.9475    0.0000 O   0  0  0  0  0  1  0  0  0  0  0  0
   -1.3806   -2.0452    0.0000 C   0  0  0  0  0  0  0  0  0  0  0  0
    0.0499   -1.5940    0.0000 C   0  0  0  0  0  0  0  0  0  0  0  0
  1  2  1  0
  2  3  1  0
  3  4  2  0
  4  5  1  0
  5  6  2  0
  6  7  1  0
  6  8  1  0
  8  9  2  0
  9 10  1  0
 10 11  1  0
 11 12  2  0
 11 13  1  0
 13 14  1  0
 14 15  1  0
 15 16  1  0
 16 17  1  0
 17 18  1  0
 18 19  1  0
 19 20  1  0
 20 21  1  0
 20 22  1  0
 22 23  1  0
 23 24  1  0
 24 25  1  0
 25 26  2  0
 26 27  1  0
 27 28  2  0
 28 29  1  0
 29 30  2  0
 29 31  1  0
 28 32  1  0
 32 33  2  0
  9  3  1  0
 21 14  1  0
 33 25  1  0
 22 16  1  0
M  CHG  2  29   1  31  -1
M  END
>  <Ki>  (145) 
11.5

>  <database>  (145) 
SRSLDB

$$$$

     RDKit          2D

 23 25  0  0  0  0  0  0  0  0999 V2000
    3.2533   -2.0648    0.0000 C   0  0  0  0  0  0  0  0  0  0  0  0
    1.7536   -2.0961    0.0000 C   0  0  0  0  0  0  0  0  0  0  0  0
    0.9766   -0.8131    0.0000 C   0  0  0  0  0  0  0  0  0  0  0  0
    1.6993    0.5014    0.0000 O   0  0  0  0  0  0  0  0  0  0  0  0
    3.1990    0.5327    0.0000 C   0  0  0  0  0  0  0  0  0  0  0  0
    3.9760   -0.7504    0.0000 C   0  0  0  0  0  0  0  0  0  0  0  0
    5.4756   -0.7190    0.0000 C   0  0  0  0  0  0  0  0  0  0  0  0
    6.1983    0.5954    0.0000 C   0  0  0  0  0  0  0  0  0  0  0  0
    7.6980    0.6267    0.0000 Cl  0  0  0  0  0  0  0  0  0  0  0  0
    5.4213    1.8785    0.0000 C   0  0  0  0  0  0  0  0  0  0  0  0
    3.9217    1.8471    0.0000 C   0  0  0  0  0  0  0  0  0  0  0  0
   -0.5231   -0.8444    0.0000 C   0  0  0  0  0  0  0  0  0  0  0  0
   -1.2458   -2.1588    0.0000 O   0  0  0  0  0  0  0  0  0  0  0  0
   -1.3000    0.4387    0.0000 O   0  0  0  0  0  0  0  0  0  0  0  0
   -2.7997    0.4074    0.0000 C   0  0  0  0  0  0  0  0  0  0  0  0
   -3.5224   -0.9071    0.0000 C   0  0  0  0  0  0  0  0  0  0  0  0
   -5.0221   -0.9384    0.0000 C   0  0  0  0  0  0  0  0  0  0  0  0
   -6.4580   -0.5048    0.0000 C   0  0  0  0  0  0  0  0  0  0  0  0
   -6.4894    0.9949    0.0000 C   0  0  0  0  0  0  0  0  0  0  0  0
   -5.0728    1.4881    0.0000 C   0  0  0  0  0  0  0  0  0  0  0  0
   -3.5767    1.6904    0.0000 C   0  0  0  0  0  0  0  0  0  0  0  0
   -4.1660    0.2933    0.0000 N   0  0  0  0  0  0  0  0  0  0  0  0
   -3.3967    0.5023    0.0000 C   0  0  0  0  0  0  0  0  0  0  0  0
  1  2  1  0
  2  3  1  0
  3  4  1  0
  4  5  1  0
  5  6  2  0
  6  7  1  0
  7  8  2  0
  8  9  1  0
  8 10  1  0
 10 11  2  0
  3 12  1  0
 12 13  2  0
 12 14  1  0
 14 15  1  0
 15 16  1  0
 16 17  1  0
 17 18  1  0
 18 19  1  0
 19 20  1  0
 20 21  1  0
 20 22  1  0
 22 23  1  0
 11  5  1  0
 21 15  1  0
 22 17  1  0
M  END
>  <ChemBL_ID>  (146) 
CHEMBL45951

>  <Ki>  (146) 
67.5

>  <database>  (146) 
SRSLDB

$$$$

     RDKit          2D

 29 33  0  0  0  0  0  0  0  0999 V2000
    7.5535   -2.8826    0.0000 C   0  0  0  0  0  0  0  0  0  0  0  0
    6.2640   -3.6489    0.0000 C   0  0  0  0  0  0  0  0  0  0  0  0
    4.9556   -2.9153    0.0000 C   0  0  0  0  0  0  0  0  0  0  0  0
    4.9367   -1.4154    0.0000 C   0  0  0  0  0  0  0  0  0  0  0  0
    6.2262   -0.6492    0.0000 C   0  0  0  0  0  0  0  0  0  0  0  0
    7.5346   -1.3828    0.0000 C   0  0  0  0  0  0  0  0  0  0  0  0
    5.8959    0.8140    0.0000 C   0  0  0  0  0  0  0  0  0  0  0  0
    6.7623    2.0385    0.0000 C   0  0  0  0  0  0  0  0  0  0  0  0
    6.1350    3.4011    0.0000 C   0  0  0  0  0  0  0  0  0  0  0  0
    4.6413    3.5391    0.0000 C   0  0  0  0  0  0  0  0  0  0  0  0
    3.7750    2.3146    0.0000 C   0  0  0  0  0  0  0  0  0  0  0  0
    4.4023    0.9520    0.0000 C   0  0  0  0  0  0  0  0  0  0  0  0
    3.8095   -0.4258    0.0000 N   0  0  0  0  0  0  0  0  0  0  0  0
    2.3463   -0.7562    0.0000 C   0  0  0  0  0  0  0  0  0  0  0  0
    1.3286    0.3459    0.0000 C   0  0  0  0  0  0  0  0  0  0  0  0
   -0.1345    0.0155    0.0000 C   0  0  0  0  0  0  0  0  0  0  0  0
   -1.1522    1.1176    0.0000 C   0  0  0  0  0  0  0  0  0  0  0  0
   -2.6154    0.7872    0.0000 N   0  0  0  0  0  0  0  0  0  0  0  0
   -3.6330    1.8893    0.0000 C   0  0  0  0  0  0  0  0  0  0  0  0
   -5.0962    1.5589    0.0000 C   0  0  0  0  0  0  0  0  0  0  0  0
   -5.5417    0.1266    0.0000 C   0  0  0  0  0  0  0  0  0  0  0  0
   -7.0049   -0.2037    0.0000 C   0  0  0  0  0  0  0  0  0  0  0  0
   -8.0226    0.8983    0.0000 C   0  0  0  0  0  0  0  0  0  0  0  0
   -9.4857    0.5680    0.0000 C   0  0  0  0  0  0  0  0  0  0  0  0
   -9.9313   -0.8643    0.0000 C   0  0  0  0  0  0  0  0  0  0  0  0
   -8.9136   -1.9663    0.0000 C   0  0  0  0  0  0  0  0  0  0  0  0
   -7.4505   -1.6360    0.0000 C   0  0  0  0  0  0  0  0  0  0  0  0
   -4.5241   -0.9754    0.0000 C   0  0  0  0  0  0  0  0  0  0  0  0
   -3.0609   -0.6451    0.0000 C   0  0  0  0  0  0  0  0  0  0  0  0
  1  2  2  0
  2  3  1  0
  3  4  2  0
  4  5  1  0
  5  6  2  0
  5  7  1  0
  7  8  2  0
  8  9  1  0
  9 10  2  0
 10 11  1  0
 11 12  2  0
 12 13  1  0
 13 14  1  0
 14 15  1  0
 15 16  1  0
 16 17  1  0
 17 18  1  0
 18 19  1  0
 19 20  1  0
 20 21  1  0
 21 22  1  0
 22 23  1  0
 23 24  1  0
 24 25  1  0
 25 26  1  0
 26 27  1  0
 21 28  1  0
 28 29  1  0
  6  1  1  0
 12  7  1  0
 29 18  1  0
 13  4  1  0
 27 22  1  0
M  END
>  <Ki>  (147) 
7.65

>  <database>  (147) 
SRSLDB

$$$$

     RDKit          2D

 24 30  0  0  0  0  0  0  0  0999 V2000
    5.3096   -3.5012    0.0000 C   0  0  0  0  0  0  0  0  0  0  0  0
    5.5298   -2.0175    0.0000 O   0  0  0  0  0  0  0  0  0  0  0  0
    4.3549   -1.0849    0.0000 C   0  0  0  0  0  0  0  0  0  0  0  0
    2.9598   -1.6362    0.0000 C   0  0  0  0  0  0  0  0  0  0  0  0
    1.7849   -0.7036    0.0000 C   0  0  0  0  0  0  0  0  0  0  0  0
    2.0051    0.7801    0.0000 C   0  0  0  0  0  0  0  0  0  0  0  0
    0.8302    1.7126    0.0000 C   0  0  0  0  0  0  0  0  0  0  0  0
   -0.5649    1.1614    0.0000 N   0  0  0  0  0  0  0  0  0  0  0  0
   -0.9389   -0.2912    0.0000 C   0  0  0  0  0  0  0  0  0  0  0  0
   -1.7435   -1.5571    0.0000 C   0  0  0  0  0  0  0  0  0  0  0  0
   -4.9875   -1.8909    0.0000 C   0  0  0  0  0  0  0  0  0  0  0  0
   -6.2534   -1.0863    0.0000 C   0  0  0  0  0  0  0  0  0  0  0  0
   -5.8794    0.3663    0.0000 C   0  0  0  0  0  0  0  0  0  0  0  0
   -4.3823    0.4595    0.0000 C   0  0  0  0  0  0  0  0  0  0  0  0
   -3.8310   -0.9356    0.0000 C   0  0  0  0  0  0  0  0  0  0  0  0
   -2.4360   -0.3844    0.0000 C   0  0  0  0  0  0  0  0  0  0  0  0
   -2.9872    1.0107    0.0000 C   0  0  0  0  0  0  0  0  0  0  0  0
   -1.8308    1.9660    0.0000 C   0  0  0  0  0  0  0  0  0  0  0  0
   -1.9240    3.4631    0.0000 O   0  0  0  0  0  0  0  0  0  0  0  0
   -5.1508   -0.9449    0.0000 C   0  0  0  0  0  0  0  0  0  0  0  0
    3.4001    1.3313    0.0000 C   0  0  0  0  0  0  0  0  0  0  0  0
    4.5750    0.3988    0.0000 C   0  0  0  0  0  0  0  0  0  0  0  0
    5.9701    0.9500    0.0000 O   0  0  0  0  0  0  0  0  0  0  0  0
    6.1902    2.4338    0.0000 C   0  0  0  0  0  0  0  0  0  0  0  0
  1  2  1  0
  2  3  1  0
  3  4  2  0
  4  5  1  0
  5  6  2  0
  6  7  1  0
  7  8  1  0
  8  9  1  0
  9 10  1  0
 10 11  1  0
 11 12  1  0
 12 13  1  0
 13 14  1  0
 14 15  1  0
 15 16  1  0
 16 17  1  0
 17 18  1  0
 18 19  1  0
 18 20  1  0
  6 21  1  0
 21 22  2  0
 22 23  1  0
 23 24  1  0
 22  3  1  0
 18  8  1  0
 16  9  1  0
 20 10  1  0
 15 11  1  0
 20 13  1  0
 17 14  1  0
M  END
>  <ChemBL_ID>  (148) 
CHEMBL2205827

>  <Ki>  (148) 
12.6

>  <database>  (148) 
SRSLDB

$$$$

     RDKit          2D

 30 33  0  0  0  0  0  0  0  0999 V2000
   -9.6523    0.8895    0.0000 C   0  0  0  0  0  0  0  0  0  0  0  0
   -8.7747   -0.3270    0.0000 O   0  0  0  0  0  0  0  0  0  0  0  0
   -7.2824   -0.1753    0.0000 C   0  0  0  0  0  0  0  0  0  0  0  0
   -6.6677    1.1930    0.0000 C   0  0  0  0  0  0  0  0  0  0  0  0
   -5.1754    1.3447    0.0000 C   0  0  0  0  0  0  0  0  0  0  0  0
   -4.2978    0.1282    0.0000 C   0  0  0  0  0  0  0  0  0  0  0  0
   -4.9125   -1.2401    0.0000 C   0  0  0  0  0  0  0  0  0  0  0  0
   -6.4048   -1.3918    0.0000 C   0  0  0  0  0  0  0  0  0  0  0  0
   -7.0196   -2.7600    0.0000 O   0  0  0  0  0  0  0  0  0  0  0  0
   -6.1420   -3.9765    0.0000 C   0  0  0  0  0  0  0  0  0  0  0  0
   -2.8055    0.2799    0.0000 C   0  0  0  0  0  0  0  0  0  0  0  0
   -2.1908    1.6482    0.0000 N   0  0  0  0  0  0  0  0  0  0  0  0
   -0.6984    1.7999    0.0000 C   0  0  0  0  0  0  0  0  0  0  0  0
    0.1791    0.5834    0.0000 C   0  0  0  0  0  0  0  0  0  0  0  0
    1.6714    0.7352    0.0000 C   0  0  0  0  0  0  0  0  0  0  0  0
    2.5490   -0.4814    0.0000 C   0  0  0  0  0  0  0  0  0  0  0  0
    4.0413   -0.3296    0.0000 N   0  0  0  0  0  0  0  0  0  0  0  0
    4.7957    0.9669    0.0000 C   0  0  0  0  0  0  0  0  0  0  0  0
    6.2618    0.6500    0.0000 C   0  0  0  0  0  0  0  0  0  0  0  0
    7.3799    1.6500    0.0000 C   0  0  0  0  0  0  0  0  0  0  0  0
    7.0731    3.1182    0.0000 C   0  0  0  0  0  0  0  0  0  0  0  0
    8.1912    4.1181    0.0000 F   0  0  0  0  0  0  0  0  0  0  0  0
    6.4136   -0.8423    0.0000 C   0  0  0  0  0  0  0  0  0  0  0  0
    7.6241   -1.7280    0.0000 C   0  0  0  0  0  0  0  0  0  0  0  0
    7.4623   -3.2193    0.0000 C   0  0  0  0  0  0  0  0  0  0  0  0
    6.0899   -3.8247    0.0000 C   0  0  0  0  0  0  0  0  0  0  0  0
    4.8794   -2.9390    0.0000 C   0  0  0  0  0  0  0  0  0  0  0  0
    5.0412   -1.4477    0.0000 C   0  0  0  0  0  0  0  0  0  0  0  0
   -3.0683    2.8647    0.0000 C   0  0  0  0  0  0  0  0  0  0  0  0
   -4.5606    2.7129    0.0000 C   0  0  0  0  0  0  0  0  0  0  0  0
  1  2  1  0
  2  3  1  0
  3  4  2  0
  4  5  1  0
  5  6  2  0
  6  7  1  0
  7  8  2  0
  8  9  1  0
  9 10  1  0
  6 11  1  0
 11 12  1  0
 12 13  1  0
 13 14  1  0
 14 15  1  0
 15 16  1  0
 16 17  1  0
 17 18  1  0
 18 19  2  0
 19 20  1  0
 20 21  1  0
 21 22  1  0
 19 23  1  0
 23 24  2  0
 24 25  1  0
 25 26  2  0
 26 27  1  0
 27 28  2  0
 12 29  1  0
 29 30  1  0
  8  3  1  0
 28 17  1  0
 30  5  1  0
 28 23  1  0
M  END
>  <Ki>  (149) 
27.5

>  <database>  (149) 
SRSLDB

$$$$

     RDKit          2D

 30 33  0  0  0  0  0  0  0  0999 V2000
   -5.6635   -3.3049    0.0000 C   0  0  0  0  0  0  0  0  0  0  0  0
   -4.2994   -2.6810    0.0000 O   0  0  0  0  0  0  0  0  0  0  0  0
   -4.1578   -1.1877    0.0000 C   0  0  0  0  0  0  0  0  0  0  0  0
   -5.3802   -0.3183    0.0000 C   0  0  0  0  0  0  0  0  0  0  0  0
   -5.2385    1.1750    0.0000 C   0  0  0  0  0  0  0  0  0  0  0  0
   -3.8744    1.7989    0.0000 C   0  0  0  0  0  0  0  0  0  0  0  0
   -3.7328    3.2922    0.0000 C   0  0  0  0  0  0  0  0  0  0  0  0
   -2.6520    0.9296    0.0000 C   0  0  0  0  0  0  0  0  0  0  0  0
   -2.7937   -0.5637    0.0000 C   0  0  0  0  0  0  0  0  0  0  0  0
   -1.5713   -1.4330    0.0000 N   0  0  0  0  0  0  0  0  0  0  0  0
   -0.2072   -0.8090    0.0000 C   0  0  0  0  0  0  0  0  0  0  0  0
   -0.0656    0.6843    0.0000 O   0  0  0  0  0  0  0  0  0  0  0  0
    1.0152   -1.6784    0.0000 O   0  0  0  0  0  0  0  0  0  0  0  0
    2.3792   -1.0544    0.0000 C   0  0  0  0  0  0  0  0  0  0  0  0
    3.6016   -1.9237    0.0000 C   0  0  0  0  0  0  0  0  0  0  0  0
    4.9657   -1.2998    0.0000 C   0  0  0  0  0  0  0  0  0  0  0  0
    6.3298   -0.6758    0.0000 C   0  0  0  0  0  0  0  0  0  0  0  0
    6.4714    0.8175    0.0000 C   0  0  0  0  0  0  0  0  0  0  0  0
    5.2490    1.6868    0.0000 C   0  0  0  0  0  0  0  0  0  0  0  0
    3.8849    1.0629    0.0000 C   0  0  0  0  0  0  0  0  0  0  0  0
    2.5209    0.4389    0.0000 C   0  0  0  0  0  0  0  0  0  0  0  0
    3.7433   -0.4304    0.0000 N   0  0  0  0  0  0  0  0  0  0  0  0
    2.3792   -1.0544    0.0000 C   0  0  0  0  0  0  0  0  0  0  0  0
    1.1568   -0.1851    0.0000 C   0  0  0  0  0  0  0  0  0  0  0  0
    1.2985    1.3082    0.0000 C   0  0  0  0  0  0  0  0  0  0  0  0
    0.0761    2.1775    0.0000 C   0  0  0  0  0  0  0  0  0  0  0  0
   -1.2880    1.5536    0.0000 C   0  0  0  0  0  0  0  0  0  0  0  0
   -2.5104    2.4229    0.0000 C   0  0  0  0  0  0  0  0  0  0  0  0
   -1.4296    0.0603    0.0000 C   0  0  0  0  0  0  0  0  0  0  0  0
   -0.2072   -0.8090    0.0000 C   0  0  0  0  0  0  0  0  0  0  0  0
  1  2  1  0
  2  3  1  0
  3  4  2  0
  4  5  1  0
  5  6  2  0
  6  7  1  0
  6  8  1  0
  8  9  2  0
  9 10  1  0
 10 11  1  0
 11 12  2  0
 11 13  1  0
 13 14  1  0
 14 15  1  0
 15 16  1  0
 16 17  1  0
 17 18  1  0
 18 19  1  0
 19 20  1  0
 20 21  1  0
 20 22  1  0
 22 23  1  0
 23 24  1  0
 24 25  2  0
 25 26  1  0
 26 27  2  0
 27 28  1  0
 27 29  1  0
 29 30  2  0
  9  3  1  0
 21 14  1  0
 30 24  1  0
 22 16  1  0
M  END
>  <Ki>  (150) 
15.5

>  <database>  (150) 
SRSLDB

$$$$

     RDKit          2D

 29 32  0  0  0  0  0  0  0  0999 V2000
   -9.9202   -3.3014    0.0000 C   0  0  0  0  0  0  0  0  0  0  0  0
   -8.4456   -3.0264    0.0000 O   0  0  0  0  0  0  0  0  0  0  0  0
   -7.9465   -1.6119    0.0000 C   0  0  0  0  0  0  0  0  0  0  0  0
   -8.9220   -0.4724    0.0000 C   0  0  0  0  0  0  0  0  0  0  0  0
   -8.4229    0.9422    0.0000 C   0  0  0  0  0  0  0  0  0  0  0  0
   -6.9483    1.2172    0.0000 C   0  0  0  0  0  0  0  0  0  0  0  0
   -5.9728    0.0777    0.0000 C   0  0  0  0  0  0  0  0  0  0  0  0
   -6.4719   -1.3368    0.0000 C   0  0  0  0  0  0  0  0  0  0  0  0
   -4.4983    0.3528    0.0000 C   0  0  0  0  0  0  0  0  0  0  0  0
   -3.9992    1.7673    0.0000 N   0  0  0  0  0  0  0  0  0  0  0  0
   -2.5246    2.0423    0.0000 C   0  0  0  0  0  0  0  0  0  0  0  0
   -1.5491    0.9028    0.0000 C   0  0  0  0  0  0  0  0  0  0  0  0
   -0.0746    1.1779    0.0000 C   0  0  0  0  0  0  0  0  0  0  0  0
    0.9009    0.0384    0.0000 C   0  0  0  0  0  0  0  0  0  0  0  0
    2.3755    0.3134    0.0000 N   0  0  0  0  0  0  0  0  0  0  0  0
    3.3510   -0.8261    0.0000 C   0  0  0  0  0  0  0  0  0  0  0  0
    2.8519   -2.2406    0.0000 O   0  0  0  0  0  0  0  0  0  0  0  0
    4.8255   -0.5510    0.0000 C   0  0  0  0  0  0  0  0  0  0  0  0
    5.9148   -1.5823    0.0000 C   0  0  0  0  0  0  0  0  0  0  0  0
    7.2322   -0.8651    0.0000 C   0  0  0  0  0  0  0  0  0  0  0  0
    8.6467   -1.3641    0.0000 C   0  0  0  0  0  0  0  0  0  0  0  0
    9.7862   -0.3887    0.0000 C   0  0  0  0  0  0  0  0  0  0  0  0
   11.2007   -0.8878    0.0000 I   0  0  0  0  0  0  0  0  0  0  0  0
    9.5112    1.0859    0.0000 C   0  0  0  0  0  0  0  0  0  0  0  0
    8.0966    1.5850    0.0000 C   0  0  0  0  0  0  0  0  0  0  0  0
    6.9571    0.6095    0.0000 C   0  0  0  0  0  0  0  0  0  0  0  0
    5.4697    0.8036    0.0000 O   0  0  0  0  0  0  0  0  0  0  0  0
   -4.9747    2.9068    0.0000 C   0  0  0  0  0  0  0  0  0  0  0  0
   -6.4492    2.6317    0.0000 C   0  0  0  0  0  0  0  0  0  0  0  0
  1  2  1  0
  2  3  1  0
  3  4  2  0
  4  5  1  0
  5  6  2  0
  6  7  1  0
  7  8  2  0
  7  9  1  0
  9 10  1  0
 10 11  1  0
 11 12  1  0
 12 13  1  0
 13 14  1  0
 14 15  1  0
 15 16  1  0
 16 17  2  0
 16 18  1  0
 18 19  2  0
 19 20  1  0
 20 21  2  0
 21 22  1  0
 22 23  1  0
 22 24  2  0
 24 25  1  0
 25 26  2  0
 26 27  1  0
 10 28  1  0
 28 29  1  0
  8  3  1  0
 27 18  1  0
 29  6  1  0
 26 20  1  0
M  END
>  <Ki>  (151) 
35.0

>  <database>  (151) 
SRSLDB

$$$$

     RDKit          2D

 34 38  0  0  0  0  0  0  0  0999 V2000
  -10.8652   -0.1411    0.0000 C   0  0  0  0  0  0  0  0  0  0  0  0
   -9.8384   -1.2347    0.0000 O   0  0  0  0  0  0  0  0  0  0  0  0
   -8.3780   -0.8923    0.0000 C   0  0  0  0  0  0  0  0  0  0  0  0
   -7.9444    0.5437    0.0000 C   0  0  0  0  0  0  0  0  0  0  0  0
   -6.4840    0.8861    0.0000 C   0  0  0  0  0  0  0  0  0  0  0  0
   -5.4572   -0.2074    0.0000 C   0  0  0  0  0  0  0  0  0  0  0  0
   -5.8909   -1.6434    0.0000 C   0  0  0  0  0  0  0  0  0  0  0  0
   -7.3513   -1.9858    0.0000 C   0  0  0  0  0  0  0  0  0  0  0  0
   -7.7850   -3.4217    0.0000 O   0  0  0  0  0  0  0  0  0  0  0  0
   -6.7582   -4.5153    0.0000 C   0  0  0  0  0  0  0  0  0  0  0  0
   -3.9968    0.1350    0.0000 C   0  0  0  0  0  0  0  0  0  0  0  0
   -3.5632    1.5709    0.0000 N   0  0  0  0  0  0  0  0  0  0  0  0
   -2.1028    1.9133    0.0000 C   0  0  0  0  0  0  0  0  0  0  0  0
   -1.0761    0.8198    0.0000 C   0  0  0  0  0  0  0  0  0  0  0  0
    0.3843    1.1622    0.0000 C   0  0  0  0  0  0  0  0  0  0  0  0
    1.4111    0.0687    0.0000 C   0  0  0  0  0  0  0  0  0  0  0  0
    2.8715    0.4111    0.0000 C   0  0  0  0  0  0  0  0  0  0  0  0
    3.3051    1.8470    0.0000 N   0  0  0  0  0  0  0  0  0  0  0  0
    4.7655    2.1894    0.0000 C   0  0  0  0  0  0  0  0  0  0  0  0
    5.1992    3.6254    0.0000 O   0  0  0  0  0  0  0  0  0  0  0  0
    5.7923    1.0959    0.0000 C   0  0  0  0  0  0  0  0  0  0  0  0
    5.5111   -0.3775    0.0000 C   0  0  0  0  0  0  0  0  0  0  0  0
    6.8255   -1.1002    0.0000 C   0  0  0  0  0  0  0  0  0  0  0  0
    7.1679   -2.5606    0.0000 C   0  0  0  0  0  0  0  0  0  0  0  0
    8.6038   -2.9943    0.0000 C   0  0  0  0  0  0  0  0  0  0  0  0
    8.9462   -4.4547    0.0000 I   0  0  0  0  0  0  0  0  0  0  0  0
    9.6974   -1.9676    0.0000 C   0  0  0  0  0  0  0  0  0  0  0  0
    9.3550   -0.5072    0.0000 C   0  0  0  0  0  0  0  0  0  0  0  0
    7.9190   -0.0735    0.0000 C   0  0  0  0  0  0  0  0  0  0  0  0
    7.2804    1.2838    0.0000 O   0  0  0  0  0  0  0  0  0  0  0  0
    2.2784    2.9406    0.0000 C   0  0  0  0  0  0  0  0  0  0  0  0
    0.8180    2.5981    0.0000 C   0  0  0  0  0  0  0  0  0  0  0  0
   -4.5899    2.6644    0.0000 C   0  0  0  0  0  0  0  0  0  0  0  0
   -6.0503    2.3220    0.0000 C   0  0  0  0  0  0  0  0  0  0  0  0
  1  2  1  0
  2  3  1  0
  3  4  2  0
  4  5  1  0
  5  6  2  0
  6  7  1  0
  7  8  2  0
  8  9  1  0
  9 10  1  0
  6 11  1  0
 11 12  1  0
 12 13  1  0
 13 14  1  0
 14 15  1  0
 15 16  1  0
 16 17  1  0
 17 18  1  0
 18 19  1  0
 19 20  2  0
 19 21  1  0
 21 22  2  0
 22 23  1  0
 23 24  2  0
 24 25  1  0
 25 26  1  0
 25 27  2  0
 27 28  1  0
 28 29  2  0
 29 30  1  0
 18 31  1  0
 31 32  1  0
 12 33  1  0
 33 34  1  0
  8  3  1  0
 32 15  1  0
 34  5  1  0
 30 21  1  0
 29 23  1  0
M  END
>  <Ki>  (152) 
10.6

>  <database>  (152) 
SRSLDB

$$$$

     RDKit          2D

 30 33  0  0  0  0  0  0  0  0999 V2000
  -12.2373   -1.0826    0.0000 C   0  0  0  0  0  0  0  0  0  0  0  0
  -10.9192   -1.7984    0.0000 O   0  0  0  0  0  0  0  0  0  0  0  0
   -9.6401   -1.0148    0.0000 C   0  0  0  0  0  0  0  0  0  0  0  0
   -9.6792    0.4847    0.0000 C   0  0  0  0  0  0  0  0  0  0  0  0
   -8.4002    1.2683    0.0000 C   0  0  0  0  0  0  0  0  0  0  0  0
   -7.0820    0.5524    0.0000 C   0  0  0  0  0  0  0  0  0  0  0  0
   -7.0429   -0.9471    0.0000 C   0  0  0  0  0  0  0  0  0  0  0  0
   -8.3220   -1.7307    0.0000 C   0  0  0  0  0  0  0  0  0  0  0  0
   -5.7248   -1.6630    0.0000 C   0  0  0  0  0  0  0  0  0  0  0  0
   -4.4457   -0.8794    0.0000 C   0  0  0  0  0  0  0  0  0  0  0  0
   -4.4848    0.6201    0.0000 N   0  0  0  0  0  0  0  0  0  0  0  0
   -3.2058    1.4037    0.0000 C   0  0  0  0  0  0  0  0  0  0  0  0
   -1.8876    0.6879    0.0000 C   0  0  0  0  0  0  0  0  0  0  0  0
   -0.6086    1.4715    0.0000 C   0  0  0  0  0  0  0  0  0  0  0  0
    0.7095    0.7556    0.0000 C   0  0  0  0  0  0  0  0  0  0  0  0
    1.9886    1.5392    0.0000 C   0  0  0  0  0  0  0  0  0  0  0  0
    3.3067    0.8233    0.0000 N   0  0  0  0  0  0  0  0  0  0  0  0
    4.5858    1.6069    0.0000 C   0  0  0  0  0  0  0  0  0  0  0  0
    4.5467    3.1064    0.0000 O   0  0  0  0  0  0  0  0  0  0  0  0
    5.9039    0.8911    0.0000 C   0  0  0  0  0  0  0  0  0  0  0  0
    6.0996   -0.5961    0.0000 C   0  0  0  0  0  0  0  0  0  0  0  0
    7.5744   -0.8696    0.0000 C   0  0  0  0  0  0  0  0  0  0  0  0
    8.3580   -2.1487    0.0000 C   0  0  0  0  0  0  0  0  0  0  0  0
    9.8575   -2.1096    0.0000 C   0  0  0  0  0  0  0  0  0  0  0  0
   10.6411   -3.3886    0.0000 I   0  0  0  0  0  0  0  0  0  0  0  0
   10.5734   -0.7914    0.0000 C   0  0  0  0  0  0  0  0  0  0  0  0
    9.7898    0.4876    0.0000 C   0  0  0  0  0  0  0  0  0  0  0  0
    8.2903    0.4485    0.0000 C   0  0  0  0  0  0  0  0  0  0  0  0
    7.2579    1.5367    0.0000 O   0  0  0  0  0  0  0  0  0  0  0  0
   -5.8030    1.3360    0.0000 C   0  0  0  0  0  0  0  0  0  0  0  0
  1  2  1  0
  2  3  1  0
  3  4  2  0
  4  5  1  0
  5  6  2  0
  6  7  1  0
  7  8  2  0
  7  9  1  0
  9 10  1  0
 10 11  1  0
 11 12  1  0
 12 13  1  0
 13 14  1  0
 14 15  1  0
 15 16  1  0
 16 17  1  0
 17 18  1  0
 18 19  2  0
 18 20  1  0
 20 21  2  0
 21 22  1  0
 22 23  2  0
 23 24  1  0
 24 25  1  0
 24 26  2  0
 26 27  1  0
 27 28  2  0
 28 29  1  0
 11 30  1  0
  8  3  1  0
 29 20  1  0
 30  6  1  0
 28 22  1  0
M  END
>  <Ki>  (153) 
4.4

>  <database>  (153) 
SRSLDB

$$$$

     RDKit          2D

 28 31  0  0  0  0  0  0  0  0999 V2000
    0.1955    5.2060    0.0000 C   0  0  0  0  0  0  0  0  0  0  0  0
   -0.1799    3.7537    0.0000 C   0  0  0  0  0  0  0  0  0  0  0  0
   -1.6253    3.3526    0.0000 C   0  0  0  0  0  0  0  0  0  0  0  0
   -2.0006    1.9004    0.0000 C   0  0  0  0  0  0  0  0  0  0  0  0
   -3.4460    1.4993    0.0000 C   0  0  0  0  0  0  0  0  0  0  0  0
   -3.8213    0.0470    0.0000 N   0  0  0  0  0  0  0  0  0  0  0  0
   -5.2667   -0.3540    0.0000 C   0  0  0  0  0  0  0  0  0  0  0  0
   -6.3368    0.6972    0.0000 O   0  0  0  0  0  0  0  0  0  0  0  0
   -5.6421   -1.8063    0.0000 C   0  0  0  0  0  0  0  0  0  0  0  0
   -4.5721   -2.8575    0.0000 S   0  0  0  0  0  0  0  0  0  0  0  0
   -3.1267   -2.4565    0.0000 C   0  0  0  0  0  0  0  0  0  0  0  0
   -2.0566   -3.5077    0.0000 C   0  0  0  0  0  0  0  0  0  0  0  0
   -0.6113   -3.1066    0.0000 C   0  0  0  0  0  0  0  0  0  0  0  0
   -0.2359   -1.6543    0.0000 C   0  0  0  0  0  0  0  0  0  0  0  0
   -1.3059   -0.6031    0.0000 C   0  0  0  0  0  0  0  0  0  0  0  0
   -2.7513   -1.0042    0.0000 C   0  0  0  0  0  0  0  0  0  0  0  0
    0.8902    2.7025    0.0000 N   0  0  0  0  0  0  0  0  0  0  0  0
    0.5148    1.2502    0.0000 C   0  0  0  0  0  0  0  0  0  0  0  0
    1.5848    0.1990    0.0000 C   0  0  0  0  0  0  0  0  0  0  0  0
    3.0302    0.6001    0.0000 N   0  0  0  0  0  0  0  0  0  0  0  0
    4.1003   -0.4511    0.0000 C   0  0  0  0  0  0  0  0  0  0  0  0
    3.7249   -1.9034    0.0000 C   0  0  0  0  0  0  0  0  0  0  0  0
    4.7949   -2.9546    0.0000 C   0  0  0  0  0  0  0  0  0  0  0  0
    6.2403   -2.5535    0.0000 C   0  0  0  0  0  0  0  0  0  0  0  0
    6.6157   -1.1012    0.0000 C   0  0  0  0  0  0  0  0  0  0  0  0
    5.5456   -0.0500    0.0000 C   0  0  0  0  0  0  0  0  0  0  0  0
    3.4056    2.0524    0.0000 C   0  0  0  0  0  0  0  0  0  0  0  0
    2.3356    3.1036    0.0000 C   0  0  0  0  0  0  0  0  0  0  0  0
  1  2  1  0
  2  3  1  0
  3  4  1  0
  4  5  1  0
  5  6  1  0
  6  7  1  0
  7  8  2  0
  7  9  1  0
  9 10  1  0
 10 11  1  0
 11 12  2  0
 12 13  1  0
 13 14  2  0
 14 15  1  0
 15 16  2  0
  2 17  1  0
 17 18  1  0
 18 19  1  0
 19 20  1  0
 20 21  1  0
 21 22  1  0
 22 23  1  0
 23 24  1  0
 24 25  1  0
 25 26  1  0
 20 27  1  0
 27 28  1  0
 16  6  1  0
 28 17  1  0
 16 11  1  0
 26 21  1  0
M  END
>  <Ki>  (154) 
5.45

>  <database>  (154) 
SRSLDB

$$$$

     RDKit          2D

 29 32  0  0  0  0  0  0  0  0999 V2000
   -9.6690   -1.4369    0.0000 C   0  0  0  0  0  0  0  0  0  0  0  0
   -8.1930   -1.7040    0.0000 O   0  0  0  0  0  0  0  0  0  0  0  0
   -7.2236   -0.5592    0.0000 C   0  0  0  0  0  0  0  0  0  0  0  0
   -7.7303    0.8526    0.0000 C   0  0  0  0  0  0  0  0  0  0  0  0
   -6.7610    1.9973    0.0000 C   0  0  0  0  0  0  0  0  0  0  0  0
   -5.2850    1.7302    0.0000 C   0  0  0  0  0  0  0  0  0  0  0  0
   -4.7783    0.3184    0.0000 C   0  0  0  0  0  0  0  0  0  0  0  0
   -5.7476   -0.8263    0.0000 C   0  0  0  0  0  0  0  0  0  0  0  0
   -5.2409   -2.2382    0.0000 C   0  0  0  0  0  0  0  0  0  0  0  0
   -3.7649   -2.5053    0.0000 C   0  0  0  0  0  0  0  0  0  0  0  0
   -2.7956   -1.3605    0.0000 C   0  0  0  0  0  0  0  0  0  0  0  0
   -3.3023    0.0513    0.0000 C   0  0  0  0  0  0  0  0  0  0  0  0
   -2.3329    1.1960    0.0000 C   0  0  0  0  0  0  0  0  0  0  0  0
   -0.8569    0.9289    0.0000 C   0  0  0  0  0  0  0  0  0  0  0  0
    0.1124    2.0737    0.0000 C   0  0  0  0  0  0  0  0  0  0  0  0
    1.5885    1.8066    0.0000 N   0  0  0  0  0  0  0  0  0  0  0  0
    2.0952    0.3947    0.0000 C   0  0  0  0  0  0  0  0  0  0  0  0
    3.5712    0.1276    0.0000 C   0  0  0  0  0  0  0  0  0  0  0  0
    4.5405    1.2724    0.0000 N   0  0  0  0  0  0  0  0  0  0  0  0
    6.0165    1.0053    0.0000 C   0  0  0  0  0  0  0  0  0  0  0  0
    6.9859    2.1500    0.0000 O   0  0  0  0  0  0  0  0  0  0  0  0
    6.5232   -0.4066    0.0000 C   0  0  0  0  0  0  0  0  0  0  0  0
    5.5539   -1.5513    0.0000 C   0  0  0  0  0  0  0  0  0  0  0  0
    6.0606   -2.9631    0.0000 C   0  0  0  0  0  0  0  0  0  0  0  0
    7.5366   -3.2302    0.0000 C   0  0  0  0  0  0  0  0  0  0  0  0
    8.5060   -2.0855    0.0000 C   0  0  0  0  0  0  0  0  0  0  0  0
    7.9993   -0.6737    0.0000 C   0  0  0  0  0  0  0  0  0  0  0  0
    4.0338    2.6842    0.0000 C   0  0  0  0  0  0  0  0  0  0  0  0
    2.5578    2.9513    0.0000 C   0  0  0  0  0  0  0  0  0  0  0  0
  1  2  1  0
  2  3  1  0
  3  4  2  0
  4  5  1  0
  5  6  2  0
  6  7  1  0
  7  8  2  0
  8  9  1  0
  9 10  1  0
 10 11  1  0
 11 12  1  0
 12 13  1  0
 13 14  1  0
 14 15  1  0
 15 16  1  0
 16 17  1  0
 17 18  1  0
 18 19  1  0
 19 20  1  0
 20 21  2  0
 20 22  1  0
 22 23  1  0
 23 24  1  0
 24 25  1  0
 25 26  1  0
 26 27  1  0
 19 28  1  0
 28 29  1  0
  8  3  1  0
 29 16  1  0
 12  7  1  0
 27 22  1  0
M  END
>  <ChemBL_ID>  (155) 
CHEMBL573461

>  <Ki>  (155) 
304.0

>  <database>  (155) 
SRSLDB

$$$$

     RDKit          2D

 28 31  0  0  0  0  0  0  0  0999 V2000
   -9.0554    0.3724    0.0000 C   0  0  0  0  0  0  0  0  0  0  0  0
   -8.0799   -0.7670    0.0000 O   0  0  0  0  0  0  0  0  0  0  0  0
   -6.6053   -0.4918    0.0000 C   0  0  0  0  0  0  0  0  0  0  0  0
   -6.1064    0.9227    0.0000 C   0  0  0  0  0  0  0  0  0  0  0  0
   -4.6318    1.1979    0.0000 C   0  0  0  0  0  0  0  0  0  0  0  0
   -3.6562    0.0585    0.0000 C   0  0  0  0  0  0  0  0  0  0  0  0
   -4.1552   -1.3561    0.0000 C   0  0  0  0  0  0  0  0  0  0  0  0
   -5.6297   -1.6313    0.0000 C   0  0  0  0  0  0  0  0  0  0  0  0
   -6.1287   -3.0458    0.0000 O   0  0  0  0  0  0  0  0  0  0  0  0
   -5.1531   -4.1852    0.0000 C   0  0  0  0  0  0  0  0  0  0  0  0
   -2.1817    0.3337    0.0000 C   0  0  0  0  0  0  0  0  0  0  0  0
   -1.6827    1.7483    0.0000 N   0  0  0  0  0  0  0  0  0  0  0  0
   -0.2082    2.0234    0.0000 C   0  0  0  0  0  0  0  0  0  0  0  0
    0.7674    0.8840    0.0000 C   0  0  0  0  0  0  0  0  0  0  0  0
    2.2419    1.1592    0.0000 C   0  0  0  0  0  0  0  0  0  0  0  0
    3.2175    0.0198    0.0000 C   0  0  0  0  0  0  0  0  0  0  0  0
    4.6921    0.2950    0.0000 N   0  0  0  0  0  0  0  0  0  0  0  0
    5.3362    1.6497    0.0000 C   0  0  0  0  0  0  0  0  0  0  0  0
    4.6188    2.9670    0.0000 S   0  0  0  0  0  0  0  0  0  0  0  0
    6.8236    1.4557    0.0000 S   0  0  0  0  0  0  0  0  0  0  0  0
    7.0987   -0.0188    0.0000 C   0  0  0  0  0  0  0  0  0  0  0  0
    8.3787   -0.8010    0.0000 C   0  0  0  0  0  0  0  0  0  0  0  0
    8.3413   -2.3005    0.0000 C   0  0  0  0  0  0  0  0  0  0  0  0
    7.0239   -3.0179    0.0000 C   0  0  0  0  0  0  0  0  0  0  0  0
    5.7440   -2.2357    0.0000 C   0  0  0  0  0  0  0  0  0  0  0  0
    5.7814   -0.7362    0.0000 C   0  0  0  0  0  0  0  0  0  0  0  0
   -2.6583    2.8877    0.0000 C   0  0  0  0  0  0  0  0  0  0  0  0
   -4.1328    2.6125    0.0000 C   0  0  0  0  0  0  0  0  0  0  0  0
  1  2  1  0
  2  3  1  0
  3  4  2  0
  4  5  1  0
  5  6  2  0
  6  7  1  0
  7  8  2  0
  8  9  1  0
  9 10  1  0
  6 11  1  0
 11 12  1  0
 12 13  1  0
 13 14  1  0
 14 15  1  0
 15 16  1  0
 16 17  1  0
 17 18  1  0
 18 19  2  0
 18 20  1  0
 20 21  1  0
 21 22  2  0
 22 23  1  0
 23 24  2  0
 24 25  1  0
 25 26  2  0
 12 27  1  0
 27 28  1  0
  8  3  1  0
 26 17  1  0
 28  5  1  0
 26 21  1  0
M  END
>  <Ki>  (156) 
0.56

>  <database>  (156) 
SRSLDB

$$$$

     RDKit          2D

 32 35  0  0  0  0  0  0  0  0999 V2000
  -10.7992    2.0955    0.0000 C   0  0  0  0  0  0  0  0  0  0  0  0
  -10.3887    0.6528    0.0000 O   0  0  0  0  0  0  0  0  0  0  0  0
   -8.9340    0.2869    0.0000 C   0  0  0  0  0  0  0  0  0  0  0  0
   -7.8898    1.3638    0.0000 C   0  0  0  0  0  0  0  0  0  0  0  0
   -6.4351    0.9979    0.0000 C   0  0  0  0  0  0  0  0  0  0  0  0
   -6.0246   -0.4449    0.0000 C   0  0  0  0  0  0  0  0  0  0  0  0
   -4.5699   -0.8108    0.0000 C   0  0  0  0  0  0  0  0  0  0  0  0
   -3.5257    0.2661    0.0000 N   0  0  0  0  0  0  0  0  0  0  0  0
   -2.0710   -0.0998    0.0000 C   0  0  0  0  0  0  0  0  0  0  0  0
   -1.0268    0.9771    0.0000 C   0  0  0  0  0  0  0  0  0  0  0  0
    0.4279    0.6112    0.0000 C   0  0  0  0  0  0  0  0  0  0  0  0
    1.4721    1.6880    0.0000 C   0  0  0  0  0  0  0  0  0  0  0  0
    2.9268    1.3221    0.0000 C   0  0  0  0  0  0  0  0  0  0  0  0
    3.4858   -0.0698    0.0000 C   0  0  0  0  0  0  0  0  0  0  0  0
    4.9824    0.0318    0.0000 N   0  0  0  0  0  0  0  0  0  0  0  0
    5.9442   -1.1193    0.0000 C   0  0  0  0  0  0  0  0  0  0  0  0
    5.4282   -2.5278    0.0000 C   0  0  0  0  0  0  0  0  0  0  0  0
    6.3900   -3.6788    0.0000 C   0  0  0  0  0  0  0  0  0  0  0  0
    7.8678   -3.4214    0.0000 C   0  0  0  0  0  0  0  0  0  0  0  0
    8.8296   -4.5725    0.0000 F   0  0  0  0  0  0  0  0  0  0  0  0
    8.3837   -2.0129    0.0000 C   0  0  0  0  0  0  0  0  0  0  0  0
    7.4219   -0.8619    0.0000 C   0  0  0  0  0  0  0  0  0  0  0  0
    5.3482    1.4864    0.0000 C   0  0  0  0  0  0  0  0  0  0  0  0
    6.6741    2.1879    0.0000 C   0  0  0  0  0  0  0  0  0  0  0  0
    6.7296    3.6869    0.0000 C   0  0  0  0  0  0  0  0  0  0  0  0
    5.4591    4.4844    0.0000 C   0  0  0  0  0  0  0  0  0  0  0  0
    4.1333    3.7829    0.0000 C   0  0  0  0  0  0  0  0  0  0  0  0
    4.0778    2.2839    0.0000 C   0  0  0  0  0  0  0  0  0  0  0  0
   -7.0689   -1.5217    0.0000 C   0  0  0  0  0  0  0  0  0  0  0  0
   -8.5235   -1.1558    0.0000 C   0  0  0  0  0  0  0  0  0  0  0  0
   -9.5678   -2.2327    0.0000 O   0  0  0  0  0  0  0  0  0  0  0  0
   -9.1573   -3.6754    0.0000 C   0  0  0  0  0  0  0  0  0  0  0  0
  1  2  1  0
  2  3  1  0
  3  4  2  0
  4  5  1  0
  5  6  2  0
  6  7  1  0
  7  8  1  0
  8  9  1  0
  9 10  1  0
 10 11  1  0
 11 12  1  0
 12 13  1  0
 13 14  2  0
 14 15  1  0
 15 16  1  0
 16 17  2  0
 17 18  1  0
 18 19  2  0
 19 20  1  0
 19 21  1  0
 21 22  2  0
 15 23  1  0
 23 24  2  0
 24 25  1  0
 25 26  2  0
 26 27  1  0
 27 28  2  0
  6 29  1  0
 29 30  2  0
 30 31  1  0
 31 32  1  0
 30  3  1  0
 28 13  1  0
 22 16  1  0
 28 23  1  0
M  END
>  <Ki>  (157) 
169.0

>  <database>  (157) 
SRSLDB

$$$$

     RDKit          2D

 22 27  0  0  0  0  0  0  0  0999 V2000
    0.1947   -3.1415    0.0000 C   0  0  0  0  0  0  0  0  0  0  0  0
    0.0237   -1.6512    0.0000 N   0  0  0  0  0  0  0  0  0  0  0  0
    1.2287   -0.7580    0.0000 C   0  0  0  0  0  0  0  0  0  0  0  0
    2.6048   -1.3549    0.0000 C   0  0  0  0  0  0  0  0  0  0  0  0
    3.8098   -0.4617    0.0000 C   0  0  0  0  0  0  0  0  0  0  0  0
    5.1859   -1.0586    0.0000 C   0  0  0  0  0  0  0  0  0  0  0  0
    6.3909   -0.1654    0.0000 C   0  0  0  0  0  0  0  0  0  0  0  0
    6.2198    1.3249    0.0000 C   0  0  0  0  0  0  0  0  0  0  0  0
    4.8437    1.9218    0.0000 C   0  0  0  0  0  0  0  0  0  0  0  0
    3.6387    1.0285    0.0000 N   0  0  0  0  0  0  0  0  0  0  0  0
   -1.8088    0.2692    0.0000 C   0  0  0  0  0  0  0  0  0  0  0  0
   -2.6442   -1.8167    0.0000 C   0  0  0  0  0  0  0  0  0  0  0  0
   -1.6513   -0.6924    0.0000 C   0  0  0  0  0  0  0  0  0  0  0  0
   -3.1154   -1.0183    0.0000 C   0  0  0  0  0  0  0  0  0  0  0  0
   -3.8778    0.2735    0.0000 C   0  0  0  0  0  0  0  0  0  0  0  0
   -4.0203   -1.2198    0.0000 C   0  0  0  0  0  0  0  0  0  0  0  0
   -3.7071    0.5300    0.0000 C   0  0  0  0  0  0  0  0  0  0  0  0
   -5.7223    0.8414    0.0000 O   0  0  0  0  0  0  0  0  0  0  0  0
   -2.2879    2.7738    0.0000 C   0  0  0  0  0  0  0  0  0  0  0  0
   -2.8849    1.3977    0.0000 C   0  0  0  0  0  0  0  0  0  0  0  0
   -1.5088    0.8008    0.0000 C   0  0  0  0  0  0  0  0  0  0  0  0
   -0.9118    2.1769    0.0000 C   0  0  0  0  0  0  0  0  0  0  0  0
  1  2  1  0
  2  3  1  0
  3  4  1  0
  4  5  1  0
  5  6  2  0
  6  7  1  0
  7  8  2  0
  8  9  1  0
  9 10  2  0
  2 11  1  0
 11 12  1  0
 12 13  1  0
 13 14  1  0
 14 15  1  0
 15 16  1  0
 16 17  1  0
 17 18  2  0
 17 19  1  0
 19 20  1  0
 20 21  1  0
 21 22  1  0
 10  5  1  0
 22 11  1  0
 16 12  1  0
 22 19  1  0
 21 13  1  0
 20 15  1  0
M  END
>  <ChemBL_ID>  (158) 
CHEMBL2432053

>  <Ki>  (158) 
633.0

>  <database>  (158) 
SRSLDB

$$$$

     RDKit          2D

 29 32  0  0  0  0  0  0  0  0999 V2000
   -5.7030   -3.0931    0.0000 C   0  0  0  0  0  0  0  0  0  0  0  0
   -4.3297   -2.4897    0.0000 O   0  0  0  0  0  0  0  0  0  0  0  0
   -4.1657   -0.9987    0.0000 C   0  0  0  0  0  0  0  0  0  0  0  0
   -5.3749   -0.1111    0.0000 C   0  0  0  0  0  0  0  0  0  0  0  0
   -5.2109    1.3799    0.0000 C   0  0  0  0  0  0  0  0  0  0  0  0
   -6.4201    2.2674    0.0000 Cl  0  0  0  0  0  0  0  0  0  0  0  0
   -3.8376    1.9833    0.0000 C   0  0  0  0  0  0  0  0  0  0  0  0
   -2.6284    1.0957    0.0000 C   0  0  0  0  0  0  0  0  0  0  0  0
   -2.7924   -0.3953    0.0000 C   0  0  0  0  0  0  0  0  0  0  0  0
   -1.5832   -1.2828    0.0000 N   0  0  0  0  0  0  0  0  0  0  0  0
   -0.2099   -0.6794    0.0000 C   0  0  0  0  0  0  0  0  0  0  0  0
   -0.0459    0.8116    0.0000 O   0  0  0  0  0  0  0  0  0  0  0  0
    0.9993   -1.5670    0.0000 O   0  0  0  0  0  0  0  0  0  0  0  0
    2.3726   -0.9635    0.0000 C   0  0  0  0  0  0  0  0  0  0  0  0
    3.5818   -1.8511    0.0000 C   0  0  0  0  0  0  0  0  0  0  0  0
    4.9550   -1.2476    0.0000 C   0  0  0  0  0  0  0  0  0  0  0  0
    6.3283   -0.6442    0.0000 C   0  0  0  0  0  0  0  0  0  0  0  0
    6.4924    0.8468    0.0000 C   0  0  0  0  0  0  0  0  0  0  0  0
    5.2831    1.7344    0.0000 C   0  0  0  0  0  0  0  0  0  0  0  0
    3.9099    1.1309    0.0000 C   0  0  0  0  0  0  0  0  0  0  0  0
    2.5366    0.5275    0.0000 C   0  0  0  0  0  0  0  0  0  0  0  0
    3.7458   -0.3601    0.0000 N   0  0  0  0  0  0  0  0  0  0  0  0
    2.3726   -0.9635    0.0000 C   0  0  0  0  0  0  0  0  0  0  0  0
    1.1633   -0.0760    0.0000 C   0  0  0  0  0  0  0  0  0  0  0  0
    1.3274    1.4150    0.0000 C   0  0  0  0  0  0  0  0  0  0  0  0
    0.1181    2.3026    0.0000 C   0  0  0  0  0  0  0  0  0  0  0  0
   -1.2551    1.6992    0.0000 C   0  0  0  0  0  0  0  0  0  0  0  0
   -1.4192    0.2082    0.0000 C   0  0  0  0  0  0  0  0  0  0  0  0
   -0.2099   -0.6794    0.0000 C   0  0  0  0  0  0  0  0  0  0  0  0
  1  2  1  0
  2  3  1  0
  3  4  2  0
  4  5  1  0
  5  6  1  0
  5  7  2  0
  7  8  1  0
  8  9  2  0
  9 10  1  0
 10 11  1  0
 11 12  2  0
 11 13  1  0
 13 14  1  0
 14 15  1  0
 15 16  1  0
 16 17  1  0
 17 18  1  0
 18 19  1  0
 19 20  1  0
 20 21  1  0
 20 22  1  0
 22 23  1  0
 23 24  1  0
 24 25  2  0
 25 26  1  0
 26 27  2  0
 27 28  1  0
 28 29  2  0
  9  3  1  0
 21 14  1  0
 29 24  1  0
 22 16  1  0
M  END
>  <Ki>  (159) 
63.5

>  <database>  (159) 
SRSLDB

$$$$

     RDKit          2D

 32 35  0  0  0  0  0  0  0  0999 V2000
   -9.4778   -3.0778    0.0000 C   0  0  0  0  0  0  0  0  0  0  0  0
   -8.0649   -2.5740    0.0000 O   0  0  0  0  0  0  0  0  0  0  0  0
   -7.7948   -1.0985    0.0000 C   0  0  0  0  0  0  0  0  0  0  0  0
   -8.9375   -0.1268    0.0000 C   0  0  0  0  0  0  0  0  0  0  0  0
   -8.6673    1.3487    0.0000 C   0  0  0  0  0  0  0  0  0  0  0  0
   -9.8101    2.3204    0.0000 Br  0  0  0  0  0  0  0  0  0  0  0  0
   -7.2545    1.8524    0.0000 C   0  0  0  0  0  0  0  0  0  0  0  0
   -6.1117    0.8808    0.0000 C   0  0  0  0  0  0  0  0  0  0  0  0
   -4.6989    1.3845    0.0000 C   0  0  0  0  0  0  0  0  0  0  0  0
   -4.4287    2.8600    0.0000 O   0  0  0  0  0  0  0  0  0  0  0  0
   -3.5562    0.4128    0.0000 N   0  0  0  0  0  0  0  0  0  0  0  0
   -2.1433    0.9166    0.0000 C   0  0  0  0  0  0  0  0  0  0  0  0
   -1.0006   -0.0551    0.0000 C   0  0  0  0  0  0  0  0  0  0  0  0
    0.4123    0.4487    0.0000 C   0  0  0  0  0  0  0  0  0  0  0  0
    1.5550   -0.5230    0.0000 C   0  0  0  0  0  0  0  0  0  0  0  0
    2.9679   -0.0192    0.0000 N   0  0  0  0  0  0  0  0  0  0  0  0
    3.2381    1.4563    0.0000 C   0  0  0  0  0  0  0  0  0  0  0  0
    4.6509    1.9600    0.0000 C   0  0  0  0  0  0  0  0  0  0  0  0
    5.7936    0.9884    0.0000 C   0  0  0  0  0  0  0  0  0  0  0  0
    7.2065    1.4921    0.0000 C   0  0  0  0  0  0  0  0  0  0  0  0
    8.3492    0.5204    0.0000 C   0  0  0  0  0  0  0  0  0  0  0  0
    8.0791   -0.9550    0.0000 C   0  0  0  0  0  0  0  0  0  0  0  0
    6.6662   -1.4588    0.0000 C   0  0  0  0  0  0  0  0  0  0  0  0
    5.5235   -0.4871    0.0000 C   0  0  0  0  0  0  0  0  0  0  0  0
    4.1106   -0.9909    0.0000 C   0  0  0  0  0  0  0  0  0  0  0  0
    9.2218   -1.9267    0.0000 O   0  0  0  0  0  0  0  0  0  0  0  0
   10.6347   -1.4229    0.0000 C   0  0  0  0  0  0  0  0  0  0  0  0
   10.9048    0.0525    0.0000 C   0  0  0  0  0  0  0  0  0  0  0  0
    9.7621    1.0242    0.0000 O   0  0  0  0  0  0  0  0  0  0  0  0
   -6.3819   -0.5947    0.0000 C   0  0  0  0  0  0  0  0  0  0  0  0
   -5.2392   -1.5664    0.0000 O   0  0  0  0  0  0  0  0  0  0  0  0
   -5.5093   -3.0419    0.0000 C   0  0  0  0  0  0  0  0  0  0  0  0
  1  2  1  0
  2  3  1  0
  3  4  2  0
  4  5  1  0
  5  6  1  0
  5  7  2  0
  7  8  1  0
  8  9  1  0
  9 10  2  0
  9 11  1  0
 11 12  1  0
 12 13  1  0
 13 14  1  0
 14 15  1  0
 15 16  1  0
 16 17  1  0
 17 18  1  0
 18 19  1  0
 19 20  2  0
 20 21  1  0
 21 22  2  0
 22 23  1  0
 23 24  2  0
 24 25  1  0
 22 26  1  0
 26 27  1  0
 27 28  1  0
 28 29  1  0
  8 30  2  0
 30 31  1  0
 31 32  1  0
 30  3  1  0
 25 16  1  0
 24 19  1  0
 29 21  1  0
M  END
>  <ChemBL_ID>  (160) 
CHEMBL246664

>  <Ki>  (160) 
21.7

>  <database>  (160) 
SRSLDB

$$$$

     RDKit          2D

 32 35  0  0  0  0  0  0  0  0999 V2000
   -4.9172   -3.6310    0.0000 C   0  0  0  0  0  0  0  0  0  0  0  0
   -3.5933   -2.9258    0.0000 O   0  0  0  0  0  0  0  0  0  0  0  0
   -3.5420   -1.4267    0.0000 C   0  0  0  0  0  0  0  0  0  0  0  0
   -4.8146   -0.6327    0.0000 C   0  0  0  0  0  0  0  0  0  0  0  0
   -4.7634    0.8664    0.0000 C   0  0  0  0  0  0  0  0  0  0  0  0
   -3.4395    1.5716    0.0000 C   0  0  0  0  0  0  0  0  0  0  0  0
   -3.3882    3.0707    0.0000 C   0  0  0  0  0  0  0  0  0  0  0  0
   -2.1668    0.7776    0.0000 C   0  0  0  0  0  0  0  0  0  0  0  0
   -2.2181   -0.7215    0.0000 C   0  0  0  0  0  0  0  0  0  0  0  0
   -0.9454   -1.5155    0.0000 N   0  0  0  0  0  0  0  0  0  0  0  0
    0.3785   -0.8103    0.0000 C   0  0  0  0  0  0  0  0  0  0  0  0
    0.4297    0.6888    0.0000 O   0  0  0  0  0  0  0  0  0  0  0  0
    1.6511   -1.6042    0.0000 O   0  0  0  0  0  0  0  0  0  0  0  0
    2.9750   -0.8991    0.0000 C   0  0  0  0  0  0  0  0  0  0  0  0
    4.2477   -1.6930    0.0000 C   0  0  0  0  0  0  0  0  0  0  0  0
    5.5716   -0.9879    0.0000 C   0  0  0  0  0  0  0  0  0  0  0  0
    6.8955   -0.2827    0.0000 C   0  0  0  0  0  0  0  0  0  0  0  0
    6.9468    1.2164    0.0000 C   0  0  0  0  0  0  0  0  0  0  0  0
    5.6741    2.0104    0.0000 C   0  0  0  0  0  0  0  0  0  0  0  0
    4.3502    1.3052    0.0000 C   0  0  0  0  0  0  0  0  0  0  0  0
    3.0263    0.6001    0.0000 C   0  0  0  0  0  0  0  0  0  0  0  0
    4.2989   -0.1939    0.0000 N   0  0  0  0  0  0  0  0  0  0  0  0
    2.9750   -0.8991    0.0000 C   0  0  0  0  0  0  0  0  0  0  0  0
    1.7024   -0.1051    0.0000 C   0  0  0  0  0  0  0  0  0  0  0  0
    0.3785   -0.8103    0.0000 C   0  0  0  0  0  0  0  0  0  0  0  0
   -0.8942   -0.0163    0.0000 C   0  0  0  0  0  0  0  0  0  0  0  0
   -0.8429    1.4828    0.0000 C   0  0  0  0  0  0  0  0  0  0  0  0
   -2.1156    2.2768    0.0000 C   0  0  0  0  0  0  0  0  0  0  0  0
   -3.4395    1.5716    0.0000 C   0  0  0  0  0  0  0  0  0  0  0  0
   -4.7121    2.3655    0.0000 N   0  0  0  0  0  0  0  0  0  0  0  0
   -3.4907    0.0725    0.0000 C   0  0  0  0  0  0  0  0  0  0  0  0
   -2.2181   -0.7215    0.0000 C   0  0  0  0  0  0  0  0  0  0  0  0
  1  2  1  0
  2  3  1  0
  3  4  2  0
  4  5  1  0
  5  6  2  0
  6  7  1  0
  6  8  1  0
  8  9  2  0
  9 10  1  0
 10 11  1  0
 11 12  2  0
 11 13  1  0
 13 14  1  0
 14 15  1  0
 15 16  1  0
 16 17  1  0
 17 18  1  0
 18 19  1  0
 19 20  1  0
 20 21  1  0
 20 22  1  0
 22 23  1  0
 23 24  1  0
 24 25  1  0
 25 26  1  0
 26 27  2  0
 27 28  1  0
 28 29  2  0
 29 30  1  0
 29 31  1  0
 31 32  2  0
  9  3  1  0
 21 14  1  0
 32 26  1  0
 22 16  1  0
M  END
>  <Ki>  (161) 
10.5

>  <database>  (161) 
SRSLDB

$$$$

     RDKit          2D

 33 37  0  0  0  0  0  0  0  0999 V2000
  -10.4584    1.2515    0.0000 C   0  0  0  0  0  0  0  0  0  0  0  0
   -9.6487   -0.0112    0.0000 O   0  0  0  0  0  0  0  0  0  0  0  0
   -8.1503    0.0586    0.0000 C   0  0  0  0  0  0  0  0  0  0  0  0
   -7.4616    1.3911    0.0000 C   0  0  0  0  0  0  0  0  0  0  0  0
   -5.9632    1.4609    0.0000 C   0  0  0  0  0  0  0  0  0  0  0  0
   -5.1536    0.1982    0.0000 C   0  0  0  0  0  0  0  0  0  0  0  0
   -5.8423   -1.1343    0.0000 C   0  0  0  0  0  0  0  0  0  0  0  0
   -7.3407   -1.2041    0.0000 C   0  0  0  0  0  0  0  0  0  0  0  0
   -8.0295   -2.5367    0.0000 O   0  0  0  0  0  0  0  0  0  0  0  0
   -7.2198   -3.7994    0.0000 C   0  0  0  0  0  0  0  0  0  0  0  0
   -3.6552    0.2680    0.0000 C   0  0  0  0  0  0  0  0  0  0  0  0
   -2.9665    1.6005    0.0000 N   0  0  0  0  0  0  0  0  0  0  0  0
   -1.4681    1.6703    0.0000 C   0  0  0  0  0  0  0  0  0  0  0  0
   -0.6585    0.4076    0.0000 C   0  0  0  0  0  0  0  0  0  0  0  0
    0.8399    0.4774    0.0000 C   0  0  0  0  0  0  0  0  0  0  0  0
    1.6495   -0.7854    0.0000 C   0  0  0  0  0  0  0  0  0  0  0  0
    3.1479   -0.7156    0.0000 N   0  0  0  0  0  0  0  0  0  0  0  0
    3.9722    0.5377    0.0000 C   0  0  0  0  0  0  0  0  0  0  0  0
    5.4188    0.1410    0.0000 C   0  0  0  0  0  0  0  0  0  0  0  0
    6.5900    1.0782    0.0000 C   0  0  0  0  0  0  0  0  0  0  0  0
    7.9872    0.5325    0.0000 C   0  0  0  0  0  0  0  0  0  0  0  0
    9.1584    1.4697    0.0000 C   0  0  0  0  0  0  0  0  0  0  0  0
    8.9323    2.9526    0.0000 C   0  0  0  0  0  0  0  0  0  0  0  0
    7.5351    3.4982    0.0000 C   0  0  0  0  0  0  0  0  0  0  0  0
    6.3639    2.5611    0.0000 C   0  0  0  0  0  0  0  0  0  0  0  0
    5.4886   -1.3574    0.0000 C   0  0  0  0  0  0  0  0  0  0  0  0
    6.6488   -2.3081    0.0000 C   0  0  0  0  0  0  0  0  0  0  0  0
    6.4055   -3.7883    0.0000 C   0  0  0  0  0  0  0  0  0  0  0  0
    5.0020   -4.3177    0.0000 C   0  0  0  0  0  0  0  0  0  0  0  0
    3.8418   -3.3669    0.0000 C   0  0  0  0  0  0  0  0  0  0  0  0
    4.0851   -1.8868    0.0000 C   0  0  0  0  0  0  0  0  0  0  0  0
   -3.7761    2.8632    0.0000 C   0  0  0  0  0  0  0  0  0  0  0  0
   -5.2745    2.7935    0.0000 C   0  0  0  0  0  0  0  0  0  0  0  0
  1  2  1  0
  2  3  1  0
  3  4  2  0
  4  5  1  0
  5  6  2  0
  6  7  1  0
  7  8  2  0
  8  9  1  0
  9 10  1  0
  6 11  1  0
 11 12  1  0
 12 13  1  0
 13 14  1  0
 14 15  1  0
 15 16  1  0
 16 17  1  0
 17 18  1  0
 18 19  2  0
 19 20  1  0
 20 21  2  0
 21 22  1  0
 22 23  2  0
 23 24  1  0
 24 25  2  0
 19 26  1  0
 26 27  2  0
 27 28  1  0
 28 29  2  0
 29 30  1  0
 30 31  2  0
 12 32  1  0
 32 33  1  0
  8  3  1  0
 31 17  1  0
 33  5  1  0
 25 20  1  0
 31 26  1  0
M  END
>  <ChemBL_ID>  (162) 
CHEMBL1831163

>  <Ki>  (162) 
46.29

>  <database>  (162) 
SRSLDB

$$$$

     RDKit          2D

 30 33  0  0  0  0  0  0  0  0999 V2000
   -5.6635   -3.3049    0.0000 C   0  0  0  0  0  0  0  0  0  0  0  0
   -4.2994   -2.6810    0.0000 O   0  0  0  0  0  0  0  0  0  0  0  0
   -4.1578   -1.1877    0.0000 C   0  0  0  0  0  0  0  0  0  0  0  0
   -5.3802   -0.3183    0.0000 C   0  0  0  0  0  0  0  0  0  0  0  0
   -5.2385    1.1750    0.0000 C   0  0  0  0  0  0  0  0  0  0  0  0
   -3.8744    1.7989    0.0000 C   0  0  0  0  0  0  0  0  0  0  0  0
   -3.7328    3.2922    0.0000 C   0  0  0  0  0  0  0  0  0  0  0  0
   -2.6520    0.9296    0.0000 C   0  0  0  0  0  0  0  0  0  0  0  0
   -2.7937   -0.5637    0.0000 C   0  0  0  0  0  0  0  0  0  0  0  0
   -1.5713   -1.4330    0.0000 N   0  0  0  0  0  0  0  0  0  0  0  0
   -0.2072   -0.8090    0.0000 C   0  0  0  0  0  0  0  0  0  0  0  0
   -0.0656    0.6843    0.0000 O   0  0  0  0  0  0  0  0  0  0  0  0
    1.0152   -1.6784    0.0000 O   0  0  0  0  0  0  0  0  0  0  0  0
    2.3792   -1.0544    0.0000 C   0  0  0  0  0  0  0  0  0  0  0  0
    3.6016   -1.9237    0.0000 C   0  0  0  0  0  0  0  0  0  0  0  0
    4.9657   -1.2998    0.0000 C   0  0  0  0  0  0  0  0  0  0  0  0
    6.3298   -0.6758    0.0000 C   0  0  0  0  0  0  0  0  0  0  0  0
    6.4714    0.8175    0.0000 C   0  0  0  0  0  0  0  0  0  0  0  0
    5.2490    1.6868    0.0000 C   0  0  0  0  0  0  0  0  0  0  0  0
    3.8849    1.0629    0.0000 C   0  0  0  0  0  0  0  0  0  0  0  0
    2.5209    0.4389    0.0000 C   0  0  0  0  0  0  0  0  0  0  0  0
    3.7433   -0.4304    0.0000 N   0  0  0  0  0  0  0  0  0  0  0  0
    2.3792   -1.0544    0.0000 C   0  0  0  0  0  0  0  0  0  0  0  0
    1.1568   -0.1851    0.0000 C   0  0  0  0  0  0  0  0  0  0  0  0
    1.2985    1.3082    0.0000 C   0  0  0  0  0  0  0  0  0  0  0  0
    0.0761    2.1775    0.0000 C   0  0  0  0  0  0  0  0  0  0  0  0
   -1.2880    1.5536    0.0000 C   0  0  0  0  0  0  0  0  0  0  0  0
   -2.5104    2.4229    0.0000 I   0  0  0  0  0  0  0  0  0  0  0  0
   -1.4296    0.0603    0.0000 C   0  0  0  0  0  0  0  0  0  0  0  0
   -0.2072   -0.8090    0.0000 C   0  0  0  0  0  0  0  0  0  0  0  0
  1  2  1  0
  2  3  1  0
  3  4  2  0
  4  5  1  0
  5  6  2  0
  6  7  1  0
  6  8  1  0
  8  9  2  0
  9 10  1  0
 10 11  1  0
 11 12  2  0
 11 13  1  0
 13 14  1  0
 14 15  1  0
 15 16  1  0
 16 17  1  0
 17 18  1  0
 18 19  1  0
 19 20  1  0
 20 21  1  0
 20 22  1  0
 22 23  1  0
 23 24  1  0
 24 25  2  0
 25 26  1  0
 26 27  2  0
 27 28  1  0
 27 29  1  0
 29 30  2  0
  9  3  1  0
 21 14  1  0
 30 24  1  0
 22 16  1  0
M  END
>  <Ki>  (163) 
30.6

>  <database>  (163) 
SRSLDB

$$$$

     RDKit          2D

 25 27  0  0  0  0  0  0  0  0999 V2000
   -0.4714   -0.1624    0.0000 C   0  0  0  0  0  0  0  0  0  0  0  0
    1.0092    0.0782    0.0000 C   0  0  0  0  0  0  0  0  0  0  0  0
    2.2109   -0.8196    0.0000 C   0  0  0  0  0  0  0  0  0  0  0  0
    3.5892   -0.2279    0.0000 N   0  0  0  0  0  0  0  0  0  0  0  0
    3.7659    1.2617    0.0000 C   0  0  0  0  0  0  0  0  0  0  0  0
    5.1443    1.8534    0.0000 C   0  0  0  0  0  0  0  0  0  0  0  0
    6.3459    0.9556    0.0000 C   0  0  0  0  0  0  0  0  0  0  0  0
    6.1692   -0.5340    0.0000 C   0  0  0  0  0  0  0  0  0  0  0  0
    4.7908   -1.1257    0.0000 C   0  0  0  0  0  0  0  0  0  0  0  0
    3.4125   -1.7174    0.0000 C   0  0  0  0  0  0  0  0  0  0  0  0
    2.2109   -0.8196    0.0000 C   0  0  0  0  0  0  0  0  0  0  0  0
    0.8325   -1.4114    0.0000 O   0  0  0  0  0  0  0  0  0  0  0  0
   -0.3691   -0.5136    0.0000 C   0  0  0  0  0  0  0  0  0  0  0  0
   -0.1924    0.9760    0.0000 O   0  0  0  0  0  0  0  0  0  0  0  0
   -1.7475   -1.1053    0.0000 N   0  0  0  0  0  0  0  0  0  0  0  0
   -2.9491   -0.2075    0.0000 C   0  0  0  0  0  0  0  0  0  0  0  0
   -2.7724    1.2821    0.0000 C   0  0  0  0  0  0  0  0  0  0  0  0
   -3.9740    2.1799    0.0000 C   0  0  0  0  0  0  0  0  0  0  0  0
   -3.7973    3.6694    0.0000 C   0  0  0  0  0  0  0  0  0  0  0  0
   -5.3524    1.5882    0.0000 C   0  0  0  0  0  0  0  0  0  0  0  0
   -5.5291    0.0986    0.0000 C   0  0  0  0  0  0  0  0  0  0  0  0
   -4.3275   -0.7992    0.0000 C   0  0  0  0  0  0  0  0  0  0  0  0
   -4.5042   -2.2888    0.0000 O   0  0  0  0  0  0  0  0  0  0  0  0
   -5.8825   -2.8805    0.0000 C   0  0  0  0  0  0  0  0  0  0  0  0
    2.3876    0.6699    0.0000 C   0  0  0  0  0  0  0  0  0  0  0  0
  1  2  2  0
  2  3  1  0
  3  4  1  0
  4  5  1  0
  5  6  1  0
  6  7  1  0
  7  8  1  0
  8  9  1  0
  9 10  1  0
 10 11  1  0
 11 12  1  0
 12 13  1  0
 13 14  2  0
 13 15  1  0
 15 16  1  0
 16 17  2  0
 17 18  1  0
 18 19  1  0
 18 20  2  0
 20 21  1  0
 21 22  2  0
 22 23  1  0
 23 24  1  0
 11 25  1  0
  9  4  1  0
 22 16  1  0
 25  5  1  0
M  END
>  <ChemBL_ID>  (164) 
CHEMBL508251

>  <Ki>  (164) 
85.9

>  <database>  (164) 
SRSLDB

$$$$

     RDKit          2D

 33 37  0  0  0  0  0  0  0  0999 V2000
    9.5980    3.9729    0.0000 F   0  0  0  0  0  0  0  0  0  0  0  0
    8.4929    2.9586    0.0000 C   0  0  0  0  0  0  0  0  0  0  0  0
    8.8187    1.4944    0.0000 C   0  0  0  0  0  0  0  0  0  0  0  0
    7.7136    0.4801    0.0000 C   0  0  0  0  0  0  0  0  0  0  0  0
    6.2827    0.9301    0.0000 C   0  0  0  0  0  0  0  0  0  0  0  0
    5.1776   -0.0842    0.0000 C   0  0  0  0  0  0  0  0  0  0  0  0
    3.7075    0.2137    0.0000 C   0  0  0  0  0  0  0  0  0  0  0  0
    2.9699   -1.0925    0.0000 N   0  0  0  0  0  0  0  0  0  0  0  0
    1.4797   -1.2634    0.0000 C   0  0  0  0  0  0  0  0  0  0  0  0
    0.5865   -0.0584    0.0000 C   0  0  0  0  0  0  0  0  0  0  0  0
   -0.9038   -0.2294    0.0000 C   0  0  0  0  0  0  0  0  0  0  0  0
   -1.7970    0.9757    0.0000 C   0  0  0  0  0  0  0  0  0  0  0  0
   -3.2872    0.8047    0.0000 N   0  0  0  0  0  0  0  0  0  0  0  0
   -4.1804    2.0098    0.0000 C   0  0  0  0  0  0  0  0  0  0  0  0
   -5.6706    1.8388    0.0000 C   0  0  0  0  0  0  0  0  0  0  0  0
   -6.2676    0.4627    0.0000 N   0  0  0  0  0  0  0  0  0  0  0  0
   -7.7578    0.2917    0.0000 C   0  0  0  0  0  0  0  0  0  0  0  0
   -8.6510    1.4968    0.0000 C   0  0  0  0  0  0  0  0  0  0  0  0
  -10.1413    1.3258    0.0000 C   0  0  0  0  0  0  0  0  0  0  0  0
  -10.7383   -0.0503    0.0000 C   0  0  0  0  0  0  0  0  0  0  0  0
  -12.2285   -0.2213    0.0000 F   0  0  0  0  0  0  0  0  0  0  0  0
   -9.8451   -1.2553    0.0000 C   0  0  0  0  0  0  0  0  0  0  0  0
   -8.3549   -1.0843    0.0000 C   0  0  0  0  0  0  0  0  0  0  0  0
   -5.3744   -0.7424    0.0000 C   0  0  0  0  0  0  0  0  0  0  0  0
   -3.8842   -0.5714    0.0000 C   0  0  0  0  0  0  0  0  0  0  0  0
    3.9841   -2.1976    0.0000 C   0  0  0  0  0  0  0  0  0  0  0  0
    3.8416   -3.6908    0.0000 C   0  0  0  0  0  0  0  0  0  0  0  0
    5.0634   -4.5608    0.0000 C   0  0  0  0  0  0  0  0  0  0  0  0
    6.4279   -3.9377    0.0000 C   0  0  0  0  0  0  0  0  0  0  0  0
    6.5705   -2.4445    0.0000 C   0  0  0  0  0  0  0  0  0  0  0  0
    5.3486   -1.5744    0.0000 C   0  0  0  0  0  0  0  0  0  0  0  0
    5.9569    2.3942    0.0000 C   0  0  0  0  0  0  0  0  0  0  0  0
    7.0620    3.4085    0.0000 C   0  0  0  0  0  0  0  0  0  0  0  0
  1  2  1  0
  2  3  2  0
  3  4  1  0
  4  5  2  0
  5  6  1  0
  6  7  2  0
  7  8  1  0
  8  9  1  0
  9 10  1  0
 10 11  1  0
 11 12  1  0
 12 13  1  0
 13 14  1  0
 14 15  1  0
 15 16  1  0
 16 17  1  0
 17 18  2  0
 18 19  1  0
 19 20  2  0
 20 21  1  0
 20 22  1  0
 22 23  2  0
 16 24  1  0
 24 25  1  0
  8 26  1  0
 26 27  2  0
 27 28  1  0
 28 29  2  0
 29 30  1  0
 30 31  2  0
  5 32  1  0
 32 33  2  0
 33  2  1  0
 31  6  1  0
 25 13  1  0
 31 26  1  0
 23 17  1  0
M  END
>  <ChemBL_ID>  (165) 
CHEMBL1831165

>  <Ki>  (165) 
83.33

>  <database>  (165) 
SRSLDB

$$$$

     RDKit          2D

 27 30  0  0  0  0  0  0  0  0999 V2000
    9.4525   -2.2317    0.0000 F   0  0  0  0  0  0  0  0  0  0  0  0
    8.0785   -1.6298    0.0000 C   0  0  0  0  0  0  0  0  0  0  0  0
    6.8703   -2.5188    0.0000 C   0  0  0  0  0  0  0  0  0  0  0  0
    5.4963   -1.9169    0.0000 C   0  0  0  0  0  0  0  0  0  0  0  0
    5.3306   -0.4261    0.0000 C   0  0  0  0  0  0  0  0  0  0  0  0
    6.5388    0.4629    0.0000 C   0  0  0  0  0  0  0  0  0  0  0  0
    7.9128   -0.1390    0.0000 C   0  0  0  0  0  0  0  0  0  0  0  0
    6.0668    1.8867    0.0000 S   0  0  0  0  0  0  0  0  0  0  0  0
    4.5668    1.8777    0.0000 C   0  0  0  0  0  0  0  0  0  0  0  0
    3.6779    3.0859    0.0000 S   0  0  0  0  0  0  0  0  0  0  0  0
    4.1118    0.4483    0.0000 N   0  0  0  0  0  0  0  0  0  0  0  0
    2.6880   -0.0237    0.0000 C   0  0  0  0  0  0  0  0  0  0  0  0
    1.5673    0.9733    0.0000 C   0  0  0  0  0  0  0  0  0  0  0  0
    0.1435    0.5012    0.0000 C   0  0  0  0  0  0  0  0  0  0  0  0
   -0.9772    1.4982    0.0000 C   0  0  0  0  0  0  0  0  0  0  0  0
   -2.4009    1.0261    0.0000 N   0  0  0  0  0  0  0  0  0  0  0  0
   -3.5217    2.0231    0.0000 C   0  0  0  0  0  0  0  0  0  0  0  0
   -4.9454    1.5511    0.0000 C   0  0  0  0  0  0  0  0  0  0  0  0
   -5.2485    0.0820    0.0000 N   0  0  0  0  0  0  0  0  0  0  0  0
   -6.6723   -0.3900    0.0000 C   0  0  0  0  0  0  0  0  0  0  0  0
   -7.7930    0.6070    0.0000 C   0  0  0  0  0  0  0  0  0  0  0  0
   -9.2168    0.1349    0.0000 C   0  0  0  0  0  0  0  0  0  0  0  0
   -9.5199   -1.3342    0.0000 C   0  0  0  0  0  0  0  0  0  0  0  0
   -8.3991   -2.3312    0.0000 C   0  0  0  0  0  0  0  0  0  0  0  0
   -6.9754   -1.8591    0.0000 C   0  0  0  0  0  0  0  0  0  0  0  0
   -4.1278   -0.9150    0.0000 C   0  0  0  0  0  0  0  0  0  0  0  0
   -2.7040   -0.4429    0.0000 C   0  0  0  0  0  0  0  0  0  0  0  0
  1  2  1  0
  2  3  2  0
  3  4  1  0
  4  5  2  0
  5  6  1  0
  6  7  2  0
  6  8  1  0
  8  9  1  0
  9 10  2  0
  9 11  1  0
 11 12  1  0
 12 13  1  0
 13 14  1  0
 14 15  1  0
 15 16  1  0
 16 17  1  0
 17 18  1  0
 18 19  1  0
 19 20  1  0
 20 21  1  0
 21 22  1  0
 22 23  1  0
 23 24  1  0
 24 25  1  0
 19 26  1  0
 26 27  1  0
  7  2  1  0
 27 16  1  0
 11  5  1  0
 25 20  1  0
M  END
>  <Ki>  (166) 
0.5

>  <database>  (166) 
SRSLDB

$$$$

     RDKit          2D

 23 25  0  0  0  0  0  0  0  0999 V2000
   -2.4338    2.0740    0.0000 O   0  0  0  0  0  0  0  0  0  0  0  0
   -2.7575    0.6093    0.0000 C   0  0  0  0  0  0  0  0  0  0  0  0
   -1.6509   -0.4033    0.0000 N   0  0  0  0  0  0  0  0  0  0  0  0
   -0.2206    0.0487    0.0000 C   0  0  0  0  0  0  0  0  0  0  0  0
    0.8860   -0.9639    0.0000 C   0  0  0  0  0  0  0  0  0  0  0  0
    2.3163   -0.5118    0.0000 C   0  0  0  0  0  0  0  0  0  0  0  0
    2.6399    0.9528    0.0000 N   0  0  0  0  0  0  0  0  0  0  0  0
    4.0702    1.4049    0.0000 C   0  0  0  0  0  0  0  0  0  0  0  0
    5.1768    0.3922    0.0000 C   0  0  0  0  0  0  0  0  0  0  0  0
    4.8532   -1.0724    0.0000 C   0  0  0  0  0  0  0  0  0  0  0  0
    5.9598   -2.0851    0.0000 C   0  0  0  0  0  0  0  0  0  0  0  0
    7.3900   -1.6330    0.0000 C   0  0  0  0  0  0  0  0  0  0  0  0
    7.7137   -0.1684    0.0000 C   0  0  0  0  0  0  0  0  0  0  0  0
    6.6071    0.8443    0.0000 C   0  0  0  0  0  0  0  0  0  0  0  0
    1.5333    1.9654    0.0000 C   0  0  0  0  0  0  0  0  0  0  0  0
    0.1031    1.5134    0.0000 C   0  0  0  0  0  0  0  0  0  0  0  0
   -4.1877    0.1573    0.0000 C   0  0  0  0  0  0  0  0  0  0  0  0
   -5.2943    1.1699    0.0000 C   0  0  0  0  0  0  0  0  0  0  0  0
   -6.7246    0.7179    0.0000 C   0  0  0  0  0  0  0  0  0  0  0  0
   -7.0483   -0.7468    0.0000 C   0  0  0  0  0  0  0  0  0  0  0  0
   -8.4785   -1.1988    0.0000 I   0  0  0  0  0  0  0  0  0  0  0  0
   -5.9417   -1.7594    0.0000 C   0  0  0  0  0  0  0  0  0  0  0  0
   -4.5114   -1.3074    0.0000 C   0  0  0  0  0  0  0  0  0  0  0  0
  1  2  2  0
  2  3  1  0
  3  4  1  0
  4  5  1  0
  5  6  1  0
  6  7  1  0
  7  8  1  0
  8  9  1  0
  9 10  2  0
 10 11  1  0
 11 12  2  0
 12 13  1  0
 13 14  2  0
  7 15  1  0
 15 16  1  0
  2 17  1  0
 17 18  2  0
 18 19  1  0
 19 20  2  0
 20 21  1  0
 20 22  1  0
 22 23  2  0
 16  4  1  0
 23 17  1  0
 14  9  1  0
M  END
>  <ChemBL_ID>  (167) 
CHEMBL50112

>  <Compound_Key>  (167) 
SID512367,4-IBP

>  <Ki>  (167) 
25.2

>  <database>  (167) 
CHEMBL

>  <Assay_ChEMBL_ID>  (167) 
CHEMBL805228

>  <Document_ChEMBL_ID>  (167) 
CHEMBL1127537

$$$$

     RDKit          2D

 25 28  0  0  0  0  0  0  0  0999 V2000
   -8.0013   -1.5406    0.0000 O   0  0  0  0  0  0  0  0  0  0  0  0
   -6.6999   -0.7947    0.0000 C   0  0  0  0  0  0  0  0  0  0  0  0
   -6.6951    0.7053    0.0000 C   0  0  0  0  0  0  0  0  0  0  0  0
   -5.3937    1.4512    0.0000 C   0  0  0  0  0  0  0  0  0  0  0  0
   -4.0971    0.6971    0.0000 C   0  0  0  0  0  0  0  0  0  0  0  0
   -4.1018   -0.8029    0.0000 C   0  0  0  0  0  0  0  0  0  0  0  0
   -5.4032   -1.5488    0.0000 C   0  0  0  0  0  0  0  0  0  0  0  0
   -2.9320   -1.7419    0.0000 C   0  0  0  0  0  0  0  0  0  0  0  0
   -1.4686   -1.4127    0.0000 C   0  0  0  0  0  0  0  0  0  0  0  0
   -0.8135   -0.0633    0.0000 N   0  0  0  0  0  0  0  0  0  0  0  0
    0.6865   -0.0681    0.0000 C   0  0  0  0  0  0  0  0  0  0  0  0
    1.4324   -1.3695    0.0000 C   0  0  0  0  0  0  0  0  0  0  0  0
    2.9324   -1.3742    0.0000 C   0  0  0  0  0  0  0  0  0  0  0  0
    3.6865   -0.0776    0.0000 C   0  0  0  0  0  0  0  0  0  0  0  0
    5.1865   -0.0823    0.0000 C   0  0  0  0  0  0  0  0  0  0  0  0
    5.9324   -1.3837    0.0000 C   0  0  0  0  0  0  0  0  0  0  0  0
    7.4324   -1.3885    0.0000 C   0  0  0  0  0  0  0  0  0  0  0  0
    8.1865   -0.0918    0.0000 C   0  0  0  0  0  0  0  0  0  0  0  0
    7.4406    1.2096    0.0000 C   0  0  0  0  0  0  0  0  0  0  0  0
    5.9406    1.2143    0.0000 C   0  0  0  0  0  0  0  0  0  0  0  0
    2.9406    1.2238    0.0000 C   0  0  0  0  0  0  0  0  0  0  0  0
    1.4406    1.2286    0.0000 C   0  0  0  0  0  0  0  0  0  0  0  0
   -1.4600    1.2902    0.0000 C   0  0  0  0  0  0  0  0  0  0  0  0
   -2.9213    1.6286    0.0000 C   0  0  0  0  0  0  0  0  0  0  0  0
   -3.2505    3.0920    0.0000 O   0  0  0  0  0  0  0  0  0  0  0  0
  1  2  1  0
  2  3  2  0
  3  4  1  0
  4  5  2  0
  5  6  1  0
  6  7  2  0
  6  8  1  0
  8  9  1  0
  9 10  1  0
 11 10  1  6
 11 12  1  0
 12 13  1  0
 13 14  1  0
 14 15  1  6
 15 16  2  0
 16 17  1  0
 17 18  2  0
 18 19  1  0
 19 20  2  0
 14 21  1  0
 21 22  1  0
 10 23  1  0
 23 24  1  0
 24 25  1  0
  7  2  1  0
 22 11  1  0
 24  5  1  0
 20 15  1  0
M  END
>  <ChemBL_ID>  (168) 
CHEMBL1289837

>  <Ki>  (168) 
8.6

>  <database>  (168) 
SRSLDB

$$$$

     RDKit          2D

 25 28  0  0  0  0  0  0  0  0999 V2000
   -5.0909   -2.3885    0.0000 C   0  0  0  0  0  0  0  0  0  0  0  0
   -5.8137   -1.0741    0.0000 C   0  0  0  0  0  0  0  0  0  0  0  0
   -7.3133   -1.0428    0.0000 C   0  0  0  0  0  0  0  0  0  0  0  0
   -8.0361    0.2716    0.0000 C   0  0  0  0  0  0  0  0  0  0  0  0
   -7.2592    1.5547    0.0000 C   0  0  0  0  0  0  0  0  0  0  0  0
   -5.7595    1.5234    0.0000 C   0  0  0  0  0  0  0  0  0  0  0  0
   -5.0367    0.2090    0.0000 C   0  0  0  0  0  0  0  0  0  0  0  0
   -3.5371    0.1777    0.0000 C   0  0  0  0  0  0  0  0  0  0  0  0
   -2.8143   -1.1367    0.0000 C   0  0  0  0  0  0  0  0  0  0  0  0
   -1.3146   -1.1680    0.0000 C   0  0  0  0  0  0  0  0  0  0  0  0
   -0.5377    0.1152    0.0000 C   0  0  0  0  0  0  0  0  0  0  0  0
    0.9620    0.0839    0.0000 N   0  0  0  0  0  0  0  0  0  0  0  0
    1.6847   -1.2305    0.0000 C   0  0  0  0  0  0  0  0  0  0  0  0
    3.1844   -1.2618    0.0000 C   0  0  0  0  0  0  0  0  0  0  0  0
    3.9613    0.0213    0.0000 N   0  0  0  0  0  0  0  0  0  0  0  0
    5.4610   -0.0100    0.0000 C   0  0  0  0  0  0  0  0  0  0  0  0
    6.1837   -1.3244    0.0000 C   0  0  0  0  0  0  0  0  0  0  0  0
    7.6834   -1.3556    0.0000 C   0  0  0  0  0  0  0  0  0  0  0  0
    8.4603   -0.0725    0.0000 C   0  0  0  0  0  0  0  0  0  0  0  0
    7.7376    1.2419    0.0000 C   0  0  0  0  0  0  0  0  0  0  0  0
    6.2379    1.2731    0.0000 N   0  0  0  0  0  0  0  0  0  0  0  0
    3.2386    1.3357    0.0000 C   0  0  0  0  0  0  0  0  0  0  0  0
    1.7389    1.3670    0.0000 C   0  0  0  0  0  0  0  0  0  0  0  0
   -1.2605    1.4296    0.0000 C   0  0  0  0  0  0  0  0  0  0  0  0
   -2.7601    1.4608    0.0000 C   0  0  0  0  0  0  0  0  0  0  0  0
  1  2  1  0
  2  3  2  0
  3  4  1  0
  4  5  2  0
  5  6  1  0
  6  7  2  0
  8  7  1  6
  8  9  1  0
  9 10  1  0
 10 11  1  0
 11 12  1  6
 12 13  1  0
 13 14  1  0
 14 15  1  0
 15 16  1  0
 16 17  2  0
 17 18  1  0
 18 19  2  0
 19 20  1  0
 20 21  2  0
 15 22  1  0
 22 23  1  0
 11 24  1  0
 24 25  1  0
  7  2  1  0
 25  8  1  0
 23 12  1  0
 21 16  1  0
M  END
>  <ChemBL_ID>  (169) 
CHEMBL456435

>  <Ki>  (169) 
71.0

>  <database>  (169) 
SRSLDB

$$$$

     RDKit          2D

 25 27  0  0  0  0  0  0  0  0999 V2000
   -5.8825   -2.8805    0.0000 C   0  0  0  0  0  0  0  0  0  0  0  0
   -4.5042   -2.2888    0.0000 O   0  0  0  0  0  0  0  0  0  0  0  0
   -4.3275   -0.7992    0.0000 C   0  0  0  0  0  0  0  0  0  0  0  0
   -5.5291    0.0986    0.0000 C   0  0  0  0  0  0  0  0  0  0  0  0
   -5.3524    1.5882    0.0000 C   0  0  0  0  0  0  0  0  0  0  0  0
   -3.9740    2.1799    0.0000 C   0  0  0  0  0  0  0  0  0  0  0  0
   -3.7973    3.6694    0.0000 C   0  0  0  0  0  0  0  0  0  0  0  0
   -2.7724    1.2821    0.0000 C   0  0  0  0  0  0  0  0  0  0  0  0
   -2.9491   -0.2075    0.0000 C   0  0  0  0  0  0  0  0  0  0  0  0
   -1.7475   -1.1053    0.0000 N   0  0  0  0  0  0  0  0  0  0  0  0
   -0.3691   -0.5136    0.0000 C   0  0  0  0  0  0  0  0  0  0  0  0
   -0.1924    0.9760    0.0000 O   0  0  0  0  0  0  0  0  0  0  0  0
    0.8325   -1.4114    0.0000 O   0  0  0  0  0  0  0  0  0  0  0  0
    2.2109   -0.8196    0.0000 C   0  0  0  0  0  0  0  0  0  0  0  0
    3.4125   -1.7174    0.0000 C   0  0  0  0  0  0  0  0  0  0  0  0
    4.7908   -1.1257    0.0000 C   0  0  0  0  0  0  0  0  0  0  0  0
    6.1692   -0.5340    0.0000 C   0  0  0  0  0  0  0  0  0  0  0  0
    6.3459    0.9556    0.0000 C   0  0  0  0  0  0  0  0  0  0  0  0
    5.1443    1.8534    0.0000 C   0  0  0  0  0  0  0  0  0  0  0  0
    3.7659    1.2617    0.0000 C   0  0  0  0  0  0  0  0  0  0  0  0
    2.3876    0.6699    0.0000 C   0  0  0  0  0  0  0  0  0  0  0  0
    3.5892   -0.2279    0.0000 N   0  0  0  0  0  0  0  0  0  0  0  0
    2.2109   -0.8196    0.0000 C   0  0  0  0  0  0  0  0  0  0  0  0
    1.0092    0.0782    0.0000 C   0  0  0  0  0  0  0  0  0  0  0  0
   -0.4714   -0.1624    0.0000 F   0  0  0  0  0  0  0  0  0  0  0  0
  1  2  1  0
  2  3  1  0
  3  4  2  0
  4  5  1  0
  5  6  2  0
  6  7  1  0
  6  8  1  0
  8  9  2  0
  9 10  1  0
 10 11  1  0
 11 12  2  0
 11 13  1  0
 13 14  1  0
 14 15  1  0
 15 16  1  0
 16 17  1  0
 17 18  1  0
 18 19  1  0
 19 20  1  0
 20 21  1  0
 20 22  1  0
 22 23  1  0
 23 24  1  0
 24 25  1  0
  9  3  1  0
 21 14  1  0
 22 16  1  0
M  END
>  <ChemBL_ID>  (170) 
CHEMBL480433

>  <Ki>  (170) 
143.0

>  <database>  (170) 
SRSLDB

$$$$

     RDKit          2D

 21 26  0  0  0  0  0  0  0  0999 V2000
    0.4144   -3.2013    0.0000 C   0  0  0  0  0  0  0  0  0  0  0  0
    0.5395   -1.7066    0.0000 N   0  0  0  0  0  0  0  0  0  0  0  0
   -0.6924   -0.8509    0.0000 C   0  0  0  0  0  0  0  0  0  0  0  0
   -2.0495   -1.4899    0.0000 C   0  0  0  0  0  0  0  0  0  0  0  0
   -3.2815   -0.6342    0.0000 C   0  0  0  0  0  0  0  0  0  0  0  0
   -3.1564    0.8606    0.0000 C   0  0  0  0  0  0  0  0  0  0  0  0
   -4.3884    1.7163    0.0000 C   0  0  0  0  0  0  0  0  0  0  0  0
   -5.7454    1.0772    0.0000 C   0  0  0  0  0  0  0  0  0  0  0  0
   -5.8705   -0.4176    0.0000 C   0  0  0  0  0  0  0  0  0  0  0  0
   -4.6385   -1.2733    0.0000 N   0  0  0  0  0  0  0  0  0  0  0  0
    1.8966   -1.0675    0.0000 C   0  0  0  0  0  0  0  0  0  0  0  0
    3.2113   -1.7897    0.0000 C   0  0  0  0  0  0  0  0  0  0  0  0
    2.4575   -0.4929    0.0000 C   0  0  0  0  0  0  0  0  0  0  0  0
    1.0854    0.1133    0.0000 C   0  0  0  0  0  0  0  0  0  0  0  0
    1.2379    1.6055    0.0000 C   0  0  0  0  0  0  0  0  0  0  0  0
    2.7043    1.9216    0.0000 C   0  0  0  0  0  0  0  0  0  0  0  0
    3.4580    0.6247    0.0000 C   0  0  0  0  0  0  0  0  0  0  0  0
    4.8301    0.0186    0.0000 C   0  0  0  0  0  0  0  0  0  0  0  0
    4.6776   -1.4737    0.0000 C   0  0  0  0  0  0  0  0  0  0  0  0
    2.3882    3.3879    0.0000 C   0  0  0  0  0  0  0  0  0  0  0  0
    0.9218    3.0718    0.0000 C   0  0  0  0  0  0  0  0  0  0  0  0
  1  2  1  0
  2  3  1  0
  3  4  1  0
  4  5  1  0
  5  6  2  0
  6  7  1  0
  7  8  2  0
  8  9  1  0
  9 10  2  0
  2 11  1  0
 11 12  1  0
 12 13  1  0
 13 14  1  0
 14 15  1  0
 15 16  1  0
 16 17  1  0
 17 18  1  0
 18 19  1  0
 19 20  1  0
 20 21  1  0
 10  5  1  0
 21 11  1  0
 19 12  1  0
 17 13  1  0
 21 15  1  0
 20 16  1  0
M  END
>  <ChemBL_ID>  (171) 
CHEMBL2432059

>  <Ki>  (171) 
32.0

>  <database>  (171) 
SRSLDB

$$$$

     RDKit          2D

 32 36  0  0  0  0  0  0  0  0999 V2000
    9.2065    3.9877    0.0000 F   0  0  0  0  0  0  0  0  0  0  0  0
    8.1038    2.9708    0.0000 C   0  0  0  0  0  0  0  0  0  0  0  0
    8.4331    1.5074    0.0000 C   0  0  0  0  0  0  0  0  0  0  0  0
    7.3304    0.4905    0.0000 C   0  0  0  0  0  0  0  0  0  0  0  0
    5.8984    0.9371    0.0000 C   0  0  0  0  0  0  0  0  0  0  0  0
    4.7957   -0.0798    0.0000 N   0  0  0  0  0  0  0  0  0  0  0  0
    3.3248    0.2146    0.0000 C   0  0  0  0  0  0  0  0  0  0  0  0
    2.5903   -1.0933    0.0000 C   0  0  0  0  0  0  0  0  0  0  0  0
    1.1005   -1.2678    0.0000 C   0  0  0  0  0  0  0  0  0  0  0  0
    0.2045   -0.0648    0.0000 C   0  0  0  0  0  0  0  0  0  0  0  0
   -1.2853   -0.2393    0.0000 C   0  0  0  0  0  0  0  0  0  0  0  0
   -2.1814    0.9636    0.0000 C   0  0  0  0  0  0  0  0  0  0  0  0
   -3.6712    0.7891    0.0000 N   0  0  0  0  0  0  0  0  0  0  0  0
   -4.5672    1.9921    0.0000 C   0  0  0  0  0  0  0  0  0  0  0  0
   -6.0570    1.8176    0.0000 C   0  0  0  0  0  0  0  0  0  0  0  0
   -6.6508    0.4401    0.0000 C   0  0  0  0  0  0  0  0  0  0  0  0
   -8.1406    0.2656    0.0000 C   0  0  0  0  0  0  0  0  0  0  0  0
   -9.0367    1.4686    0.0000 C   0  0  0  0  0  0  0  0  0  0  0  0
  -10.5265    1.2941    0.0000 C   0  0  0  0  0  0  0  0  0  0  0  0
  -11.1203   -0.0834    0.0000 C   0  0  0  0  0  0  0  0  0  0  0  0
  -10.2242   -1.2864    0.0000 C   0  0  0  0  0  0  0  0  0  0  0  0
   -8.7344   -1.1119    0.0000 C   0  0  0  0  0  0  0  0  0  0  0  0
   -5.7548   -0.7628    0.0000 C   0  0  0  0  0  0  0  0  0  0  0  0
   -4.2650   -0.5883    0.0000 C   0  0  0  0  0  0  0  0  0  0  0  0
    3.6072   -2.1960    0.0000 C   0  0  0  0  0  0  0  0  0  0  0  0
    3.4681   -3.6895    0.0000 C   0  0  0  0  0  0  0  0  0  0  0  0
    4.6921   -4.5567    0.0000 C   0  0  0  0  0  0  0  0  0  0  0  0
    6.0550   -3.9304    0.0000 C   0  0  0  0  0  0  0  0  0  0  0  0
    6.1941   -2.4368    0.0000 C   0  0  0  0  0  0  0  0  0  0  0  0
    4.9702   -1.5696    0.0000 C   0  0  0  0  0  0  0  0  0  0  0  0
    5.5691    2.4005    0.0000 C   0  0  0  0  0  0  0  0  0  0  0  0
    6.6718    3.4174    0.0000 C   0  0  0  0  0  0  0  0  0  0  0  0
  1  2  1  0
  2  3  2  0
  3  4  1  0
  4  5  2  0
  5  6  1  0
  6  7  1  0
  7  8  2  0
  8  9  1  0
  9 10  1  0
 10 11  1  0
 11 12  1  0
 12 13  1  0
 13 14  1  0
 14 15  1  0
 15 16  1  0
 16 17  1  0
 17 18  1  0
 18 19  1  0
 19 20  1  0
 20 21  1  0
 21 22  1  0
 16 23  1  0
 23 24  1  0
  8 25  1  0
 25 26  2  0
 26 27  1  0
 27 28  2  0
 28 29  1  0
 29 30  2  0
  5 31  1  0
 31 32  2  0
 32  2  1  0
 30  6  1  0
 24 13  1  0
 30 25  1  0
 22 17  1  0
M  END
>  <Ki>  (172) 
7.28

>  <database>  (172) 
SRSLDB

$$$$

     RDKit          2D

 21 26  0  0  0  0  0  0  0  0999 V2000
   -0.9733   -2.1537    0.0000 C   0  0  0  0  0  0  0  0  0  0  0  0
   -0.1488   -0.9006    0.0000 N   0  0  0  0  0  0  0  0  0  0  0  0
   -0.8219    0.4399    0.0000 C   0  0  0  0  0  0  0  0  0  0  0  0
   -2.3193    0.5273    0.0000 C   0  0  0  0  0  0  0  0  0  0  0  0
   -2.9923    1.8679    0.0000 C   0  0  0  0  0  0  0  0  0  0  0  0
   -4.4898    1.9553    0.0000 C   0  0  0  0  0  0  0  0  0  0  0  0
   -5.3142    0.7022    0.0000 C   0  0  0  0  0  0  0  0  0  0  0  0
   -4.6412   -0.6383    0.0000 C   0  0  0  0  0  0  0  0  0  0  0  0
   -5.4656   -1.8915    0.0000 F   0  0  0  0  0  0  0  0  0  0  0  0
   -3.1437   -0.7258    0.0000 C   0  0  0  0  0  0  0  0  0  0  0  0
    1.3486   -0.9881    0.0000 C   0  0  0  0  0  0  0  0  0  0  0  0
    2.1581   -2.2509    0.0000 C   0  0  0  0  0  0  0  0  0  0  0  0
    2.1160   -0.7515    0.0000 C   0  0  0  0  0  0  0  0  0  0  0  0
    1.2006    0.4368    0.0000 C   0  0  0  0  0  0  0  0  0  0  0  0
    2.0479    1.6746    0.0000 C   0  0  0  0  0  0  0  0  0  0  0  0
    3.4869    1.2513    0.0000 C   0  0  0  0  0  0  0  0  0  0  0  0
    3.5290   -0.2481    0.0000 C   0  0  0  0  0  0  0  0  0  0  0  0
    4.4444   -1.4365    0.0000 C   0  0  0  0  0  0  0  0  0  0  0  0
    3.5971   -2.6742    0.0000 C   0  0  0  0  0  0  0  0  0  0  0  0
    3.9103    2.6903    0.0000 C   0  0  0  0  0  0  0  0  0  0  0  0
    2.4713    3.1136    0.0000 C   0  0  0  0  0  0  0  0  0  0  0  0
  1  2  1  0
  2  3  1  0
  3  4  1  0
  4  5  2  0
  5  6  1  0
  6  7  2  0
  7  8  1  0
  8  9  1  0
  8 10  2  0
  2 11  1  0
 11 12  1  0
 12 13  1  0
 13 14  1  0
 14 15  1  0
 15 16  1  0
 16 17  1  0
 17 18  1  0
 18 19  1  0
 19 20  1  0
 20 21  1  0
 10  4  1  0
 21 11  1  0
 19 12  1  0
 17 13  1  0
 21 15  1  0
 20 16  1  0
M  END
>  <ChemBL_ID>  (173) 
CHEMBL1643901

>  <Ki>  (173) 
117.0

>  <database>  (173) 
SRSLDB

$$$$

     RDKit          2D

 42 46  0  0  0  0  0  0  0  0999 V2000
  -13.5526   -0.6415    0.0000 C   0  0  0  0  0  0  0  0  0  0  0  0
  -12.4355   -1.6426    0.0000 O   0  0  0  0  0  0  0  0  0  0  0  0
  -11.0101   -1.1757    0.0000 C   0  0  0  0  0  0  0  0  0  0  0  0
  -10.7017    0.2923    0.0000 C   0  0  0  0  0  0  0  0  0  0  0  0
   -9.2762    0.7592    0.0000 C   0  0  0  0  0  0  0  0  0  0  0  0
   -8.1591   -0.2418    0.0000 C   0  0  0  0  0  0  0  0  0  0  0  0
   -8.4675   -1.7098    0.0000 C   0  0  0  0  0  0  0  0  0  0  0  0
   -9.8930   -2.1767    0.0000 C   0  0  0  0  0  0  0  0  0  0  0  0
  -10.2013   -3.6447    0.0000 O   0  0  0  0  0  0  0  0  0  0  0  0
   -9.0842   -4.6457    0.0000 C   0  0  0  0  0  0  0  0  0  0  0  0
   -6.7336    0.2251    0.0000 C   0  0  0  0  0  0  0  0  0  0  0  0
   -6.4253    1.6931    0.0000 N   0  0  0  0  0  0  0  0  0  0  0  0
   -4.9998    2.1600    0.0000 C   0  0  0  0  0  0  0  0  0  0  0  0
   -3.8827    1.1590    0.0000 C   0  0  0  0  0  0  0  0  0  0  0  0
   -2.4572    1.6259    0.0000 C   0  0  0  0  0  0  0  0  0  0  0  0
   -1.3401    0.6249    0.0000 C   0  0  0  0  0  0  0  0  0  0  0  0
    0.0854    1.0918    0.0000 C   0  0  0  0  0  0  0  0  0  0  0  0
    1.2025    0.0907    0.0000 N   0  0  0  0  0  0  0  0  0  0  0  0
    2.6280    0.5577    0.0000 C   0  0  0  0  0  0  0  0  0  0  0  0
    3.7451   -0.4434    0.0000 C   0  0  0  0  0  0  0  0  0  0  0  0
    5.1705    0.0236    0.0000 C   0  0  0  0  0  0  0  0  0  0  0  0
    6.2876   -0.9775    0.0000 N   0  0  0  0  0  0  0  0  0  0  0  0
    6.1344   -2.4696    0.0000 N   0  0  0  0  0  0  0  0  0  0  0  0
    7.5062   -3.0765    0.0000 C   0  0  0  0  0  0  0  0  0  0  0  0
    7.8215   -4.5429    0.0000 C   0  0  0  0  0  0  0  0  0  0  0  0
    8.5072   -1.9594    0.0000 C   0  0  0  0  0  0  0  0  0  0  0  0
    7.7541   -0.6621    0.0000 C   0  0  0  0  0  0  0  0  0  0  0  0
    8.5010    0.6387    0.0000 C   0  0  0  0  0  0  0  0  0  0  0  0
   10.0010    0.6423    0.0000 C   0  0  0  0  0  0  0  0  0  0  0  0
   11.4093    1.1587    0.0000 C   0  0  0  0  0  0  0  0  0  0  0  0
    9.7370    2.1189    0.0000 C   0  0  0  0  0  0  0  0  0  0  0  0
   10.7541   -0.6550    0.0000 C   0  0  0  0  0  0  0  0  0  0  0  0
   10.0072   -1.9558    0.0000 C   0  0  0  0  0  0  0  0  0  0  0  0
   10.7603   -3.2530    0.0000 O   0  0  0  0  0  0  0  0  0  0  0  0
    5.4789    1.4915    0.0000 C   0  0  0  0  0  0  0  0  0  0  0  0
    4.3618    2.4925    0.0000 C   0  0  0  0  0  0  0  0  0  0  0  0
    2.9363    2.0256    0.0000 C   0  0  0  0  0  0  0  0  0  0  0  0
    1.8192    3.0267    0.0000 C   0  0  0  0  0  0  0  0  0  0  0  0
    2.1276    4.4946    0.0000 N   0  0  0  0  0  0  0  0  0  0  0  0
    0.3937    2.5597    0.0000 O   0  0  0  0  0  0  0  0  0  0  0  0
   -7.5424    2.6941    0.0000 C   0  0  0  0  0  0  0  0  0  0  0  0
   -8.9678    2.2272    0.0000 C   0  0  0  0  0  0  0  0  0  0  0  0
  1  2  1  0
  2  3  1  0
  3  4  2  0
  4  5  1  0
  5  6  2  0
  6  7  1  0
  7  8  2  0
  8  9  1  0
  9 10  1  0
  6 11  1  0
 11 12  1  0
 12 13  1  0
 13 14  1  0
 14 15  1  0
 15 16  1  0
 16 17  1  0
 17 18  1  0
 18 19  1  0
 19 20  2  0
 20 21  1  0
 21 22  1  0
 22 23  1  0
 23 24  2  0
 24 25  1  0
 24 26  1  0
 26 27  2  0
 27 28  1  0
 28 29  1  0
 29 30  1  0
 29 31  1  0
 29 32  1  0
 32 33  1  0
 33 34  2  0
 21 35  2  0
 35 36  1  0
 36 37  2  0
 37 38  1  0
 38 39  1  0
 38 40  2  0
 12 41  1  0
 41 42  1  0
  8  3  1  0
 37 19  1  0
 42  5  1  0
 27 22  1  0
 33 26  1  0
M  END
>  <Ki>  (174) 
74.5

>  <database>  (174) 
SRSLDB

$$$$

     RDKit          2D

 24 27  0  0  0  0  0  0  0  0999 V2000
    8.2500   -0.0000    0.0000 C   0  0  0  0  0  0  0  0  0  0  0  0
    7.5000   -1.2990    0.0000 C   0  0  0  0  0  0  0  0  0  0  0  0
    6.0000   -1.2990    0.0000 C   0  0  0  0  0  0  0  0  0  0  0  0
    5.2500   -0.0000    0.0000 C   0  0  0  0  0  0  0  0  0  0  0  0
    3.7500   -0.0000    0.0000 C   0  0  0  0  0  0  0  0  0  0  0  0
    3.0000    1.2990    0.0000 C   0  0  0  0  0  0  0  0  0  0  0  0
    1.5000    1.2990    0.0000 C   0  0  0  0  0  0  0  0  0  0  0  0
    0.7500    0.0000    0.0000 C   0  0  0  0  0  0  0  0  0  0  0  0
   -0.7500    0.0000    0.0000 N   0  0  0  0  0  0  0  0  0  0  0  0
   -1.5000    1.2990    0.0000 C   0  0  0  0  0  0  0  0  0  0  0  0
   -3.0000    1.2990    0.0000 C   0  0  0  0  0  0  0  0  0  0  0  0
   -3.7500    0.0000    0.0000 N   0  0  0  0  0  0  0  0  0  0  0  0
   -5.2500    0.0000    0.0000 C   0  0  0  0  0  0  0  0  0  0  0  0
   -6.0000    1.2990    0.0000 C   0  0  0  0  0  0  0  0  0  0  0  0
   -7.5000    1.2990    0.0000 C   0  0  0  0  0  0  0  0  0  0  0  0
   -8.2500   -0.0000    0.0000 C   0  0  0  0  0  0  0  0  0  0  0  0
   -7.5000   -1.2990    0.0000 C   0  0  0  0  0  0  0  0  0  0  0  0
   -6.0000   -1.2990    0.0000 N   0  0  0  0  0  0  0  0  0  0  0  0
   -3.0000   -1.2990    0.0000 C   0  0  0  0  0  0  0  0  0  0  0  0
   -1.5000   -1.2990    0.0000 C   0  0  0  0  0  0  0  0  0  0  0  0
    1.5000   -1.2990    0.0000 C   0  0  0  0  0  0  0  0  0  0  0  0
    3.0000   -1.2990    0.0000 C   0  0  0  0  0  0  0  0  0  0  0  0
    6.0000    1.2990    0.0000 C   0  0  0  0  0  0  0  0  0  0  0  0
    7.5000    1.2990    0.0000 C   0  0  0  0  0  0  0  0  0  0  0  0
  1  2  2  0
  2  3  1  0
  3  4  2  0
  5  4  1  6
  5  6  1  0
  6  7  1  0
  7  8  1  0
  8  9  1  6
  9 10  1  0
 10 11  1  0
 11 12  1  0
 12 13  1  0
 13 14  2  0
 14 15  1  0
 15 16  2  0
 16 17  1  0
 17 18  2  0
 12 19  1  0
 19 20  1  0
  8 21  1  0
 21 22  1  0
  4 23  1  0
 23 24  2  0
 24  1  1  0
 22  5  1  0
 20  9  1  0
 18 13  1  0
M  END
>  <ChemBL_ID>  (175) 
CHEMBL458553

>  <Ki>  (175) 
62.0

>  <database>  (175) 
SRSLDB

$$$$

     RDKit          2D

 29 32  0  0  0  0  0  0  0  0999 V2000
   -5.8148   -3.1030    0.0000 C   0  0  0  0  0  0  0  0  0  0  0  0
   -4.4382   -2.5071    0.0000 O   0  0  0  0  0  0  0  0  0  0  0  0
   -4.2660   -1.0170    0.0000 C   0  0  0  0  0  0  0  0  0  0  0  0
   -5.4704   -0.1229    0.0000 C   0  0  0  0  0  0  0  0  0  0  0  0
   -5.2982    1.3672    0.0000 C   0  0  0  0  0  0  0  0  0  0  0  0
   -3.9217    1.9631    0.0000 C   0  0  0  0  0  0  0  0  0  0  0  0
   -3.7495    3.4532    0.0000 C   0  0  0  0  0  0  0  0  0  0  0  0
   -2.7173    1.0690    0.0000 C   0  0  0  0  0  0  0  0  0  0  0  0
   -2.8895   -0.4211    0.0000 C   0  0  0  0  0  0  0  0  0  0  0  0
   -1.6851   -1.3153    0.0000 N   0  0  0  0  0  0  0  0  0  0  0  0
   -0.3086   -0.7193    0.0000 C   0  0  0  0  0  0  0  0  0  0  0  0
   -0.1364    0.7708    0.0000 O   0  0  0  0  0  0  0  0  0  0  0  0
    0.8958   -1.6135    0.0000 O   0  0  0  0  0  0  0  0  0  0  0  0
    2.2723   -1.0176    0.0000 C   0  0  0  0  0  0  0  0  0  0  0  0
    3.4767   -1.9117    0.0000 C   0  0  0  0  0  0  0  0  0  0  0  0
    4.8532   -1.3158    0.0000 C   0  0  0  0  0  0  0  0  0  0  0  0
    6.2298   -0.7199    0.0000 C   0  0  0  0  0  0  0  0  0  0  0  0
    6.4019    0.7702    0.0000 C   0  0  0  0  0  0  0  0  0  0  0  0
    5.1976    1.6644    0.0000 C   0  0  0  0  0  0  0  0  0  0  0  0
    3.8210    1.0685    0.0000 C   0  0  0  0  0  0  0  0  0  0  0  0
    2.4445    0.4725    0.0000 C   0  0  0  0  0  0  0  0  0  0  0  0
    3.6489   -0.4216    0.0000 N   0  0  0  0  0  0  0  0  0  0  0  0
    2.2723   -1.0176    0.0000 C   0  0  0  0  0  0  0  0  0  0  0  0
    1.0680   -0.1234    0.0000 C   0  0  0  0  0  0  0  0  0  0  0  0
    1.2401    1.3667    0.0000 C   0  0  0  0  0  0  0  0  0  0  0  0
    0.0358    2.2608    0.0000 C   0  0  0  0  0  0  0  0  0  0  0  0
   -1.3408    1.6649    0.0000 C   0  0  0  0  0  0  0  0  0  0  0  0
   -1.5129    0.1748    0.0000 N   0  0  0  0  0  0  0  0  0  0  0  0
   -0.3086   -0.7193    0.0000 C   0  0  0  0  0  0  0  0  0  0  0  0
  1  2  1  0
  2  3  1  0
  3  4  2  0
  4  5  1  0
  5  6  2  0
  6  7  1  0
  6  8  1  0
  8  9  2  0
  9 10  1  0
 10 11  1  0
 11 12  2  0
 11 13  1  0
 13 14  1  0
 14 15  1  0
 15 16  1  0
 16 17  1  0
 17 18  1  0
 18 19  1  0
 19 20  1  0
 20 21  1  0
 20 22  1  0
 22 23  1  0
 23 24  1  0
 24 25  2  0
 25 26  1  0
 26 27  2  0
 27 28  1  0
 28 29  2  0
  9  3  1  0
 21 14  1  0
 29 24  1  0
 22 16  1  0
M  END
>  <ChemBL_ID>  (176) 
CHEMBL479259

>  <Ki>  (176) 
183.9

>  <database>  (176) 
SRSLDB

$$$$

     RDKit          2D

 31 34  0  0  0  0  0  0  0  0999 V2000
   -9.3392   -0.8883    0.0000 C   0  0  0  0  0  0  0  0  0  0  0  0
   -8.0883   -1.7161    0.0000 C   0  0  0  0  0  0  0  0  0  0  0  0
   -8.1798   -3.2133    0.0000 O   0  0  0  0  0  0  0  0  0  0  0  0
   -6.7460   -1.0467    0.0000 C   0  0  0  0  0  0  0  0  0  0  0  0
   -6.6546    0.4505    0.0000 C   0  0  0  0  0  0  0  0  0  0  0  0
   -5.3122    1.1200    0.0000 C   0  0  0  0  0  0  0  0  0  0  0  0
   -4.0613    0.2922    0.0000 C   0  0  0  0  0  0  0  0  0  0  0  0
   -4.1528   -1.2050    0.0000 C   0  0  0  0  0  0  0  0  0  0  0  0
   -5.4951   -1.8745    0.0000 C   0  0  0  0  0  0  0  0  0  0  0  0
   -2.7571   -1.7546    0.0000 O   0  0  0  0  0  0  0  0  0  0  0  0
   -1.8031   -0.5971    0.0000 C   0  0  0  0  0  0  0  0  0  0  0  0
   -0.3059   -0.6885    0.0000 O   0  0  0  0  0  0  0  0  0  0  0  0
   -2.6091    0.6679    0.0000 N   0  0  0  0  0  0  0  0  0  0  0  0
   -2.0595    2.0636    0.0000 C   0  0  0  0  0  0  0  0  0  0  0  0
   -0.5760    2.2854    0.0000 C   0  0  0  0  0  0  0  0  0  0  0  0
   -0.0264    3.6811    0.0000 C   0  0  0  0  0  0  0  0  0  0  0  0
    1.4571    3.9030    0.0000 C   0  0  0  0  0  0  0  0  0  0  0  0
    2.0067    5.2987    0.0000 C   0  0  0  0  0  0  0  0  0  0  0  0
    2.3910    2.7292    0.0000 N   0  0  0  0  0  0  0  0  0  0  0  0
    1.8414    1.3335    0.0000 C   0  0  0  0  0  0  0  0  0  0  0  0
    2.7752    0.1597    0.0000 C   0  0  0  0  0  0  0  0  0  0  0  0
    4.2588    0.3815    0.0000 N   0  0  0  0  0  0  0  0  0  0  0  0
    5.1926   -0.7923    0.0000 C   0  0  0  0  0  0  0  0  0  0  0  0
    4.6430   -2.1880    0.0000 C   0  0  0  0  0  0  0  0  0  0  0  0
    5.5769   -3.3618    0.0000 C   0  0  0  0  0  0  0  0  0  0  0  0
    7.0604   -3.1399    0.0000 C   0  0  0  0  0  0  0  0  0  0  0  0
    7.9943   -4.3137    0.0000 F   0  0  0  0  0  0  0  0  0  0  0  0
    7.6100   -1.7442    0.0000 C   0  0  0  0  0  0  0  0  0  0  0  0
    6.6761   -0.5704    0.0000 C   0  0  0  0  0  0  0  0  0  0  0  0
    4.8084    1.7772    0.0000 C   0  0  0  0  0  0  0  0  0  0  0  0
    3.8745    2.9510    0.0000 C   0  0  0  0  0  0  0  0  0  0  0  0
  1  2  1  0
  2  3  2  0
  2  4  1  0
  4  5  2  0
  5  6  1  0
  6  7  2  0
  7  8  1  0
  8  9  2  0
  8 10  1  0
 10 11  1  0
 11 12  2  0
 11 13  1  0
 13 14  1  0
 14 15  1  0
 15 16  1  0
 16 17  1  0
 17 18  1  0
 17 19  1  0
 19 20  1  0
 20 21  1  0
 21 22  1  0
 22 23  1  0
 23 24  2  0
 24 25  1  0
 25 26  2  0
 26 27  1  0
 26 28  1  0
 28 29  2  0
 22 30  1  0
 30 31  1  0
  9  4  1  0
 31 19  1  0
 13  7  1  0
 29 23  1  0
M  END
>  <Ki>  (177) 
2.15

>  <database>  (177) 
SRSLDB

$$$$

     RDKit          2D

 37 40  0  0  0  0  0  0  0  0999 V2000
   -3.5990   -2.6998    0.0000 C   0  0  0  0  0  0  0  0  0  0  0  0
   -2.2033   -2.1503    0.0000 O   0  0  0  0  0  0  0  0  0  0  0  0
   -1.9813   -0.6668    0.0000 C   0  0  0  0  0  0  0  0  0  0  0  0
   -3.1550    0.2672    0.0000 C   0  0  0  0  0  0  0  0  0  0  0  0
   -2.9330    1.7507    0.0000 C   0  0  0  0  0  0  0  0  0  0  0  0
   -1.5373    2.3002    0.0000 C   0  0  0  0  0  0  0  0  0  0  0  0
   -1.3153    3.7836    0.0000 C   0  0  0  0  0  0  0  0  0  0  0  0
   -0.3636    1.3662    0.0000 C   0  0  0  0  0  0  0  0  0  0  0  0
   -0.5856   -0.1173    0.0000 C   0  0  0  0  0  0  0  0  0  0  0  0
    0.5882   -1.0513    0.0000 N   0  0  0  0  0  0  0  0  0  0  0  0
    1.9839   -0.5019    0.0000 C   0  0  0  0  0  0  0  0  0  0  0  0
    2.2059    0.9816    0.0000 O   0  0  0  0  0  0  0  0  0  0  0  0
    3.1576   -1.4359    0.0000 O   0  0  0  0  0  0  0  0  0  0  0  0
    4.5534   -0.8864    0.0000 C   0  0  0  0  0  0  0  0  0  0  0  0
    5.7271   -1.8204    0.0000 C   0  0  0  0  0  0  0  0  0  0  0  0
    7.1228   -1.2709    0.0000 C   0  0  0  0  0  0  0  0  0  0  0  0
    8.5186   -0.7215    0.0000 C   0  0  0  0  0  0  0  0  0  0  0  0
    8.7406    0.7620    0.0000 C   0  0  0  0  0  0  0  0  0  0  0  0
    7.5668    1.6960    0.0000 C   0  0  0  0  0  0  0  0  0  0  0  0
    6.1711    1.1466    0.0000 C   0  0  0  0  0  0  0  0  0  0  0  0
    4.7754    0.5971    0.0000 C   0  0  0  0  0  0  0  0  0  0  0  0
    5.9491   -0.3369    0.0000 N   0  0  0  0  0  0  0  0  0  0  0  0
    4.5534   -0.8864    0.0000 C   0  0  0  0  0  0  0  0  0  0  0  0
    3.3796    0.0476    0.0000 C   0  0  0  0  0  0  0  0  0  0  0  0
    1.9839   -0.5019    0.0000 C   0  0  0  0  0  0  0  0  0  0  0  0
    0.8102    0.4321    0.0000 C   0  0  0  0  0  0  0  0  0  0  0  0
   -0.5856   -0.1173    0.0000 C   0  0  0  0  0  0  0  0  0  0  0  0
   -1.7593    0.8167    0.0000 C   0  0  0  0  0  0  0  0  0  0  0  0
   -3.1550    0.2672    0.0000 N   0  0  0  0  0  0  0  0  0  0  0  0
   -4.3287    1.2012    0.0000 C   0  0  0  0  0  0  0  0  0  0  0  0
   -5.7245    0.6517    0.0000 C   0  0  0  0  0  0  0  0  0  0  0  0
   -6.8982    1.5857    0.0000 C   0  0  0  0  0  0  0  0  0  0  0  0
   -8.2939    1.0363    0.0000 C   0  0  0  0  0  0  0  0  0  0  0  0
   -8.5160   -0.4472    0.0000 C   0  0  0  0  0  0  0  0  0  0  0  0
   -7.3422   -1.3812    0.0000 C   0  0  0  0  0  0  0  0  0  0  0  0
   -7.5642   -2.8647    0.0000 Br  0  0  0  0  0  0  0  0  0  0  0  0
   -5.9465   -0.8317    0.0000 C   0  0  0  0  0  0  0  0  0  0  0  0
  1  2  1  0
  2  3  1  0
  3  4  2  0
  4  5  1  0
  5  6  2  0
  6  7  1  0
  6  8  1  0
  8  9  2  0
  9 10  1  0
 10 11  1  0
 11 12  2  0
 11 13  1  0
 13 14  1  0
 14 15  1  0
 15 16  1  0
 16 17  1  0
 17 18  1  0
 18 19  1  0
 19 20  1  0
 20 21  1  0
 20 22  1  0
 22 23  1  0
 23 24  1  0
 24 25  1  0
 25 26  1  0
 26 27  1  0
 27 28  1  0
 28 29  1  0
 29 30  1  0
 30 31  1  0
 31 32  2  0
 32 33  1  0
 33 34  2  0
 34 35  1  0
 35 36  1  0
 35 37  2  0
  9  3  1  0
 21 14  1  0
 37 31  1  0
 22 16  1  0
M  END
>  <Ki>  (178) 
8.94

>  <database>  (178) 
SRSLDB

$$$$

     RDKit          2D

 30 33  0  0  0  0  0  0  0  0999 V2000
   -7.9267   -0.4213    0.0000 C   0  0  0  0  0  0  0  0  0  0  0  0
   -6.6807   -1.2564    0.0000 O   0  0  0  0  0  0  0  0  0  0  0  0
   -5.3344   -0.5949    0.0000 C   0  0  0  0  0  0  0  0  0  0  0  0
   -5.2342    0.9017    0.0000 C   0  0  0  0  0  0  0  0  0  0  0  0
   -3.8880    1.5633    0.0000 C   0  0  0  0  0  0  0  0  0  0  0  0
   -2.6419    0.7282    0.0000 C   0  0  0  0  0  0  0  0  0  0  0  0
   -1.2957    1.3897    0.0000 O   0  0  0  0  0  0  0  0  0  0  0  0
   -1.1955    2.8863    0.0000 C   0  0  0  0  0  0  0  0  0  0  0  0
   -2.7422   -0.7685    0.0000 C   0  0  0  0  0  0  0  0  0  0  0  0
   -1.4961   -1.6036    0.0000 N   0  0  0  0  0  0  0  0  0  0  0  0
   -0.1499   -0.9421    0.0000 C   0  0  0  0  0  0  0  0  0  0  0  0
   -0.0497    0.5546    0.0000 O   0  0  0  0  0  0  0  0  0  0  0  0
    1.0961   -1.7772    0.0000 O   0  0  0  0  0  0  0  0  0  0  0  0
    2.4424   -1.1157    0.0000 C   0  0  0  0  0  0  0  0  0  0  0  0
    3.6884   -1.9508    0.0000 C   0  0  0  0  0  0  0  0  0  0  0  0
    5.0347   -1.2893    0.0000 C   0  0  0  0  0  0  0  0  0  0  0  0
    6.3809   -0.6278    0.0000 C   0  0  0  0  0  0  0  0  0  0  0  0
    6.4811    0.8689    0.0000 C   0  0  0  0  0  0  0  0  0  0  0  0
    5.2351    1.7040    0.0000 C   0  0  0  0  0  0  0  0  0  0  0  0
    3.8889    1.0425    0.0000 C   0  0  0  0  0  0  0  0  0  0  0  0
    2.5426    0.3810    0.0000 C   0  0  0  0  0  0  0  0  0  0  0  0
    3.7886   -0.4542    0.0000 N   0  0  0  0  0  0  0  0  0  0  0  0
    2.4424   -1.1157    0.0000 C   0  0  0  0  0  0  0  0  0  0  0  0
    1.1964   -0.2806    0.0000 C   0  0  0  0  0  0  0  0  0  0  0  0
    1.2966    1.2161    0.0000 C   0  0  0  0  0  0  0  0  0  0  0  0
    0.0506    2.0512    0.0000 C   0  0  0  0  0  0  0  0  0  0  0  0
   -1.2957    1.3897    0.0000 C   0  0  0  0  0  0  0  0  0  0  0  0
   -1.3959   -0.1070    0.0000 C   0  0  0  0  0  0  0  0  0  0  0  0
   -0.1499   -0.9421    0.0000 C   0  0  0  0  0  0  0  0  0  0  0  0
   -4.0884   -1.4300    0.0000 C   0  0  0  0  0  0  0  0  0  0  0  0
  1  2  1  0
  2  3  1  0
  3  4  2  0
  4  5  1  0
  5  6  2  0
  6  7  1  0
  7  8  1  0
  6  9  1  0
  9 10  1  0
 10 11  1  0
 11 12  2  0
 11 13  1  0
 13 14  1  0
 14 15  1  0
 15 16  1  0
 16 17  1  0
 17 18  1  0
 18 19  1  0
 19 20  1  0
 20 21  1  0
 20 22  1  0
 22 23  1  0
 23 24  1  0
 24 25  2  0
 25 26  1  0
 26 27  2  0
 27 28  1  0
 28 29  2  0
  9 30  2  0
 30  3  1  0
 21 14  1  0
 29 24  1  0
 22 16  1  0
M  END
>  <Ki>  (179) 
26.8

>  <database>  (179) 
SRSLDB

$$$$

     RDKit          2D

 22 28  0  0  0  0  0  0  0  0999 V2000
    7.5764   -0.5351    0.0000 C   0  0  0  0  0  0  0  0  0  0  0  0
    6.4538    0.4597    0.0000 O   0  0  0  0  0  0  0  0  0  0  0  0
    5.0309   -0.0150    0.0000 C   0  0  0  0  0  0  0  0  0  0  0  0
    4.7306   -1.4847    0.0000 C   0  0  0  0  0  0  0  0  0  0  0  0
    3.3077   -1.9594    0.0000 C   0  0  0  0  0  0  0  0  0  0  0  0
    2.1851   -0.9646    0.0000 C   0  0  0  0  0  0  0  0  0  0  0  0
    2.4854    0.5051    0.0000 C   0  0  0  0  0  0  0  0  0  0  0  0
    1.3628    1.4999    0.0000 C   0  0  0  0  0  0  0  0  0  0  0  0
   -0.0601    1.0252    0.0000 N   0  0  0  0  0  0  0  0  0  0  0  0
   -0.5123   -0.4050    0.0000 C   0  0  0  0  0  0  0  0  0  0  0  0
   -1.3844   -1.6255    0.0000 C   0  0  0  0  0  0  0  0  0  0  0  0
   -4.6417   -1.7829    0.0000 C   0  0  0  0  0  0  0  0  0  0  0  0
   -5.8621   -0.9108    0.0000 C   0  0  0  0  0  0  0  0  0  0  0  0
   -5.4099    0.5194    0.0000 C   0  0  0  0  0  0  0  0  0  0  0  0
   -3.9099    0.5312    0.0000 C   0  0  0  0  0  0  0  0  0  0  0  0
   -3.4352   -0.8916    0.0000 C   0  0  0  0  0  0  0  0  0  0  0  0
   -2.0123   -0.4169    0.0000 C   0  0  0  0  0  0  0  0  0  0  0  0
   -2.4870    1.0060    0.0000 C   0  0  0  0  0  0  0  0  0  0  0  0
   -1.2805    1.8972    0.0000 C   0  0  0  0  0  0  0  0  0  0  0  0
   -1.2923    3.3972    0.0000 O   0  0  0  0  0  0  0  0  0  0  0  0
   -4.7535   -0.8294    0.0000 C   0  0  0  0  0  0  0  0  0  0  0  0
    3.9083    0.9798    0.0000 C   0  0  0  0  0  0  0  0  0  0  0  0
  1  2  1  0
  2  3  1  0
  3  4  2  0
  4  5  1  0
  5  6  2  0
  6  7  1  0
  7  8  1  0
  8  9  1  0
  9 10  1  0
 10 11  1  0
 11 12  1  0
 12 13  1  0
 13 14  1  0
 14 15  1  0
 15 16  1  0
 16 17  1  0
 17 18  1  0
 18 19  1  0
 19 20  1  0
 19 21  1  0
  7 22  2  0
 22  3  1  0
 19  9  1  0
 17 10  1  0
 21 11  1  0
 16 12  1  0
 21 14  1  0
 18 15  1  0
M  END
>  <ChemBL_ID>  (180) 
CHEMBL2205824

>  <Ki>  (180) 
26.8

>  <database>  (180) 
SRSLDB

$$$$

     RDKit          2D

 37 40  0  0  0  0  0  0  0  0999 V2000
    4.1227    0.4729    0.0000 O   0  0  0  0  0  0  0  0  0  0  0  0
    4.1422   -1.0270    0.0000 C   0  0  0  0  0  0  0  0  0  0  0  0
    5.4509   -1.7600    0.0000 C   0  0  0  0  0  0  0  0  0  0  0  0
    6.7401   -0.9931    0.0000 C   0  0  0  0  0  0  0  0  0  0  0  0
    8.0488   -1.7261    0.0000 C   0  0  0  0  0  0  0  0  0  0  0  0
    9.3379   -0.9593    0.0000 C   0  0  0  0  0  0  0  0  0  0  0  0
   10.6466   -1.6923    0.0000 C   0  0  0  0  0  0  0  0  0  0  0  0
   11.9358   -0.9254    0.0000 C   0  0  0  0  0  0  0  0  0  0  0  0
   11.9162    0.5744    0.0000 C   0  0  0  0  0  0  0  0  0  0  0  0
   10.6075    1.3074    0.0000 C   0  0  0  0  0  0  0  0  0  0  0  0
    9.3184    0.5406    0.0000 C   0  0  0  0  0  0  0  0  0  0  0  0
    2.8530   -1.7938    0.0000 O   0  0  0  0  0  0  0  0  0  0  0  0
    1.5443   -1.0608    0.0000 C   0  0  0  0  0  0  0  0  0  0  0  0
    0.2552   -1.8277    0.0000 C   0  0  0  0  0  0  0  0  0  0  0  0
   -1.0535   -1.0947    0.0000 C   0  0  0  0  0  0  0  0  0  0  0  0
   -2.3427   -1.8615    0.0000 C   0  0  0  0  0  0  0  0  0  0  0  0
   -3.6514   -1.1285    0.0000 N   0  0  0  0  0  0  0  0  0  0  0  0
   -3.6709    0.3713    0.0000 C   0  0  0  0  0  0  0  0  0  0  0  0
   -4.9796    1.1044    0.0000 C   0  0  0  0  0  0  0  0  0  0  0  0
   -6.2688    0.3375    0.0000 C   0  0  0  0  0  0  0  0  0  0  0  0
   -6.8001    1.7402    0.0000 O   0  0  0  0  0  0  0  0  0  0  0  0
   -7.7425    0.0578    0.0000 C   0  0  0  0  0  0  0  0  0  0  0  0
   -8.7215    1.1942    0.0000 C   0  0  0  0  0  0  0  0  0  0  0  0
  -10.1952    0.9145    0.0000 C   0  0  0  0  0  0  0  0  0  0  0  0
  -10.6898   -0.5016    0.0000 C   0  0  0  0  0  0  0  0  0  0  0  0
  -12.1635   -0.7813    0.0000 Cl  0  0  0  0  0  0  0  0  0  0  0  0
   -9.7108   -1.6380    0.0000 C   0  0  0  0  0  0  0  0  0  0  0  0
   -8.2371   -1.3583    0.0000 C   0  0  0  0  0  0  0  0  0  0  0  0
   -6.2492   -1.1624    0.0000 C   0  0  0  0  0  0  0  0  0  0  0  0
   -4.9405   -1.8954    0.0000 C   0  0  0  0  0  0  0  0  0  0  0  0
    1.5248    0.4390    0.0000 C   0  0  0  0  0  0  0  0  0  0  0  0
    2.8140    1.2059    0.0000 C   0  0  0  0  0  0  0  0  0  0  0  0
    2.7944    2.7058    0.0000 C   0  0  0  0  0  0  0  0  0  0  0  0
    1.4857    3.4388    0.0000 C   0  0  0  0  0  0  0  0  0  0  0  0
    1.4662    4.9387    0.0000 F   0  0  0  0  0  0  0  0  0  0  0  0
    0.1966    2.6719    0.0000 C   0  0  0  0  0  0  0  0  0  0  0  0
    0.2161    1.1721    0.0000 C   0  0  0  0  0  0  0  0  0  0  0  0
  1  2  2  0
  2  3  1  0
  3  4  1  0
  4  5  1  0
  5  6  1  0
  6  7  2  0
  7  8  1  0
  8  9  2  0
  9 10  1  0
 10 11  2  0
  2 12  1  0
 12 13  1  0
 13 14  1  0
 14 15  1  0
 15 16  1  0
 16 17  1  0
 17 18  1  0
 18 19  1  0
 19 20  1  0
 20 21  1  0
 20 22  1  0
 22 23  2  0
 23 24  1  0
 24 25  2  0
 25 26  1  0
 25 27  1  0
 27 28  2  0
 20 29  1  0
 29 30  1  0
 13 31  1  0
 31 32  2  0
 32 33  1  0
 33 34  2  0
 34 35  1  0
 34 36  1  0
 36 37  2  0
 11  6  1  0
 30 17  1  0
 37 31  1  0
 28 22  1  0
M  END
>  <ChemBL_ID>  (181) 
CHEMBL1649601

>  <Compound_Key>  (181) 
(+/-)-MRJF4

>  <Ki>  (181) 
105.0

>  <database>  (181) 
SRSLDB

$$$$

     RDKit          2D

 31 34  0  0  0  0  0  0  0  0999 V2000
   -5.5559   -2.2819    0.0000 C   0  0  0  0  0  0  0  0  0  0  0  0
   -4.1467   -1.7679    0.0000 O   0  0  0  0  0  0  0  0  0  0  0  0
   -3.8873   -0.2905    0.0000 C   0  0  0  0  0  0  0  0  0  0  0  0
   -5.0371    0.6729    0.0000 C   0  0  0  0  0  0  0  0  0  0  0  0
   -4.7777    2.1503    0.0000 C   0  0  0  0  0  0  0  0  0  0  0  0
   -3.3685    2.6643    0.0000 C   0  0  0  0  0  0  0  0  0  0  0  0
   -3.1091    4.1417    0.0000 C   0  0  0  0  0  0  0  0  0  0  0  0
   -2.2187    1.7010    0.0000 C   0  0  0  0  0  0  0  0  0  0  0  0
   -2.4781    0.2236    0.0000 C   0  0  0  0  0  0  0  0  0  0  0  0
   -1.3284   -0.7398    0.0000 N   0  0  0  0  0  0  0  0  0  0  0  0
    0.0808   -0.2257    0.0000 C   0  0  0  0  0  0  0  0  0  0  0  0
    0.3402    1.2517    0.0000 O   0  0  0  0  0  0  0  0  0  0  0  0
    1.2306   -1.1890    0.0000 O   0  0  0  0  0  0  0  0  0  0  0  0
    2.6397   -0.6750    0.0000 C   0  0  0  0  0  0  0  0  0  0  0  0
    3.7895   -1.6383    0.0000 C   0  0  0  0  0  0  0  0  0  0  0  0
    5.1987   -1.1243    0.0000 C   0  0  0  0  0  0  0  0  0  0  0  0
    6.6078   -0.6102    0.0000 C   0  0  0  0  0  0  0  0  0  0  0  0
    6.8672    0.8672    0.0000 C   0  0  0  0  0  0  0  0  0  0  0  0
    5.7175    1.8305    0.0000 C   0  0  0  0  0  0  0  0  0  0  0  0
    4.3083    1.3165    0.0000 C   0  0  0  0  0  0  0  0  0  0  0  0
    2.8991    0.8024    0.0000 C   0  0  0  0  0  0  0  0  0  0  0  0
    4.0489   -0.1609    0.0000 N   0  0  0  0  0  0  0  0  0  0  0  0
    2.6397   -0.6750    0.0000 C   0  0  0  0  0  0  0  0  0  0  0  0
    1.4900    0.2884    0.0000 C   0  0  0  0  0  0  0  0  0  0  0  0
    0.0808   -0.2257    0.0000 C   0  0  0  0  0  0  0  0  0  0  0  0
   -1.0690    0.7376    0.0000 C   0  0  0  0  0  0  0  0  0  0  0  0
   -2.4781    0.2236    0.0000 C   0  0  0  0  0  0  0  0  0  0  0  0
   -2.7375   -1.2538    0.0000 C   0  0  0  0  0  0  0  0  0  0  0  0
   -3.9804   -2.0936    0.0000 C   0  0  0  0  0  0  0  0  0  0  0  0
   -1.5878   -2.2172    0.0000 C   0  0  0  0  0  0  0  0  0  0  0  0
   -0.1786   -1.7031    0.0000 C   0  0  0  0  0  0  0  0  0  0  0  0
  1  2  1  0
  2  3  1  0
  3  4  2  0
  4  5  1  0
  5  6  2  0
  6  7  1  0
  6  8  1  0
  8  9  2  0
  9 10  1  0
 10 11  1  0
 11 12  2  0
 11 13  1  0
 13 14  1  0
 14 15  1  0
 15 16  1  0
 16 17  1  0
 17 18  1  0
 18 19  1  0
 19 20  1  0
 20 21  1  0
 20 22  1  0
 22 23  1  0
 23 24  1  0
 24 25  1  0
 25 26  2  0
 26 27  1  0
 27 28  2  0
 28 29  1  0
 28 30  1  0
 30 31  2  0
  9  3  1  0
 21 14  1  0
 31 25  1  0
 22 16  1  0
M  END
>  <Ki>  (182) 
83.0

>  <database>  (182) 
SRSLDB

$$$$

     RDKit          2D

 25 28  0  0  0  0  0  0  0  0999 V2000
    1.2574    0.9358    0.0000 O   0  0  0  0  0  0  0  0  0  0  0  0
    1.5943   -0.5259    0.0000 C   0  0  0  0  0  0  0  0  0  0  0  0
    0.4968   -1.5484    0.0000 C   0  0  0  0  0  0  0  0  0  0  0  0
   -0.9375   -1.1093    0.0000 N   0  0  0  0  0  0  0  0  0  0  0  0
   -1.2743    0.3524    0.0000 C   0  0  0  0  0  0  0  0  0  0  0  0
   -2.7086    0.7915    0.0000 C   0  0  0  0  0  0  0  0  0  0  0  0
   -3.8060   -0.2311    0.0000 C   0  0  0  0  0  0  0  0  0  0  0  0
   -5.2403    0.2081    0.0000 C   0  0  0  0  0  0  0  0  0  0  0  0
   -5.5772    1.6698    0.0000 C   0  0  0  0  0  0  0  0  0  0  0  0
   -7.0114    2.1089    0.0000 C   0  0  0  0  0  0  0  0  0  0  0  0
   -8.1089    1.0863    0.0000 C   0  0  0  0  0  0  0  0  0  0  0  0
   -7.7720   -0.3753    0.0000 C   0  0  0  0  0  0  0  0  0  0  0  0
   -6.3378   -0.8145    0.0000 C   0  0  0  0  0  0  0  0  0  0  0  0
   -3.4692   -1.6927    0.0000 C   0  0  0  0  0  0  0  0  0  0  0  0
   -2.0349   -2.1319    0.0000 C   0  0  0  0  0  0  0  0  0  0  0  0
    3.0285   -0.9650    0.0000 C   0  0  0  0  0  0  0  0  0  0  0  0
    3.5163   -2.3835    0.0000 C   0  0  0  0  0  0  0  0  0  0  0  0
    5.0161   -2.3579    0.0000 N   0  0  0  0  0  0  0  0  0  0  0  0
    5.4552   -0.9236    0.0000 C   0  0  0  0  0  0  0  0  0  0  0  0
    6.8149   -0.2902    0.0000 C   0  0  0  0  0  0  0  0  0  0  0  0
    6.9463    1.2040    0.0000 C   0  0  0  0  0  0  0  0  0  0  0  0
    5.7179    2.0649    0.0000 C   0  0  0  0  0  0  0  0  0  0  0  0
    5.8492    3.5591    0.0000 O   0  0  0  0  0  0  0  0  0  0  0  0
    4.3582    1.4315    0.0000 C   0  0  0  0  0  0  0  0  0  0  0  0
    4.2268   -0.0628    0.0000 C   0  0  0  0  0  0  0  0  0  0  0  0
  1  2  2  0
  2  3  1  0
  3  4  1  0
  4  5  1  0
  5  6  1  0
  6  7  1  0
  7  8  1  0
  8  9  2  0
  9 10  1  0
 10 11  2  0
 11 12  1  0
 12 13  2  0
  7 14  1  0
 14 15  1  0
  2 16  1  0
 16 17  2  0
 17 18  1  0
 18 19  1  0
 19 20  2  0
 20 21  1  0
 21 22  2  0
 22 23  1  0
 22 24  1  0
 24 25  2  0
 15  4  1  0
 25 16  1  0
 13  8  1  0
 25 19  1  0
M  END
>  <ChemBL_ID>  (183) 
CHEMBL3099050

>  <Ki>  (183) 
224.0

>  <database>  (183) 
SRSLDB

$$$$

     RDKit          2D

 27 30  0  0  0  0  0  0  0  0999 V2000
    1.9429    1.1779    0.0000 O   0  0  0  0  0  0  0  0  0  0  0  0
    2.0631   -0.3173    0.0000 C   0  0  0  0  0  0  0  0  0  0  0  0
    0.8283   -1.1690    0.0000 C   0  0  0  0  0  0  0  0  0  0  0  0
   -0.5266   -0.5255    0.0000 N   0  0  0  0  0  0  0  0  0  0  0  0
   -0.6468    0.9697    0.0000 C   0  0  0  0  0  0  0  0  0  0  0  0
   -2.0018    1.6132    0.0000 C   0  0  0  0  0  0  0  0  0  0  0  0
   -3.2365    0.7615    0.0000 C   0  0  0  0  0  0  0  0  0  0  0  0
   -3.8608    2.1254    0.0000 O   0  0  0  0  0  0  0  0  0  0  0  0
   -4.6881    0.3835    0.0000 C   0  0  0  0  0  0  0  0  0  0  0  0
   -5.7413    1.4516    0.0000 C   0  0  0  0  0  0  0  0  0  0  0  0
   -7.1929    1.0736    0.0000 C   0  0  0  0  0  0  0  0  0  0  0  0
   -7.5913   -0.3725    0.0000 C   0  0  0  0  0  0  0  0  0  0  0  0
   -9.0429   -0.7505    0.0000 Cl  0  0  0  0  0  0  0  0  0  0  0  0
   -6.5381   -1.4406    0.0000 C   0  0  0  0  0  0  0  0  0  0  0  0
   -5.0866   -1.0626    0.0000 C   0  0  0  0  0  0  0  0  0  0  0  0
   -3.1163   -0.7337    0.0000 C   0  0  0  0  0  0  0  0  0  0  0  0
   -1.7614   -1.3772    0.0000 C   0  0  0  0  0  0  0  0  0  0  0  0
    3.4181   -0.9608    0.0000 C   0  0  0  0  0  0  0  0  0  0  0  0
    3.6939   -2.4353    0.0000 C   0  0  0  0  0  0  0  0  0  0  0  0
    5.1814   -2.6286    0.0000 N   0  0  0  0  0  0  0  0  0  0  0  0
    5.8249   -1.2736    0.0000 C   0  0  0  0  0  0  0  0  0  0  0  0
    7.2624   -0.8452    0.0000 C   0  0  0  0  0  0  0  0  0  0  0  0
    7.6101    0.6140    0.0000 C   0  0  0  0  0  0  0  0  0  0  0  0
    6.5203    1.6447    0.0000 C   0  0  0  0  0  0  0  0  0  0  0  0
    6.8681    3.1038    0.0000 O   0  0  0  0  0  0  0  0  0  0  0  0
    5.0828    1.2162    0.0000 C   0  0  0  0  0  0  0  0  0  0  0  0
    4.7351   -0.2429    0.0000 C   0  0  0  0  0  0  0  0  0  0  0  0
  1  2  2  0
  2  3  1  0
  3  4  1  0
  4  5  1  0
  5  6  1  0
  6  7  1  0
  7  8  1  0
  7  9  1  0
  9 10  2  0
 10 11  1  0
 11 12  2  0
 12 13  1  0
 12 14  1  0
 14 15  2  0
  7 16  1  0
 16 17  1  0
  2 18  1  0
 18 19  2  0
 19 20  1  0
 20 21  1  0
 21 22  2  0
 22 23  1  0
 23 24  2  0
 24 25  1  0
 24 26  1  0
 26 27  2  0
 17  4  1  0
 27 18  1  0
 15  9  1  0
 27 21  1  0
M  END
>  <ChemBL_ID>  (184) 
CHEMBL3099052

>  <Ki>  (184) 
47.0

>  <database>  (184) 
SRSLDB

$$$$

     RDKit          2D

 23 25  0  0  0  0  0  0  0  0999 V2000
    3.2533   -2.0648    0.0000 C   0  0  0  0  0  0  0  0  0  0  0  0
    1.7536   -2.0961    0.0000 C   0  0  0  0  0  0  0  0  0  0  0  0
    0.9766   -0.8131    0.0000 C   0  0  0  0  0  0  0  0  0  0  0  0
    1.6993    0.5014    0.0000 S   0  0  0  0  0  0  0  0  0  0  0  0
    3.1990    0.5327    0.0000 C   0  0  0  0  0  0  0  0  0  0  0  0
    3.9760   -0.7504    0.0000 C   0  0  0  0  0  0  0  0  0  0  0  0
    5.4756   -0.7190    0.0000 C   0  0  0  0  0  0  0  0  0  0  0  0
    6.1983    0.5954    0.0000 C   0  0  0  0  0  0  0  0  0  0  0  0
    7.6980    0.6267    0.0000 Cl  0  0  0  0  0  0  0  0  0  0  0  0
    5.4213    1.8785    0.0000 C   0  0  0  0  0  0  0  0  0  0  0  0
    3.9217    1.8471    0.0000 C   0  0  0  0  0  0  0  0  0  0  0  0
   -0.5231   -0.8444    0.0000 C   0  0  0  0  0  0  0  0  0  0  0  0
   -1.2458   -2.1588    0.0000 O   0  0  0  0  0  0  0  0  0  0  0  0
   -1.3000    0.4387    0.0000 O   0  0  0  0  0  0  0  0  0  0  0  0
   -2.7997    0.4074    0.0000 C   0  0  0  0  0  0  0  0  0  0  0  0
   -3.5224   -0.9071    0.0000 C   0  0  0  0  0  0  0  0  0  0  0  0
   -5.0221   -0.9384    0.0000 C   0  0  0  0  0  0  0  0  0  0  0  0
   -6.4580   -0.5048    0.0000 C   0  0  0  0  0  0  0  0  0  0  0  0
   -6.4894    0.9949    0.0000 C   0  0  0  0  0  0  0  0  0  0  0  0
   -5.0728    1.4881    0.0000 C   0  0  0  0  0  0  0  0  0  0  0  0
   -3.5767    1.6904    0.0000 C   0  0  0  0  0  0  0  0  0  0  0  0
   -4.1660    0.2933    0.0000 N   0  0  0  0  0  0  0  0  0  0  0  0
   -3.3967    0.5023    0.0000 C   0  0  0  0  0  0  0  0  0  0  0  0
  1  2  1  0
  2  3  1  0
  3  4  1  0
  4  5  1  0
  5  6  2  0
  6  7  1  0
  7  8  2  0
  8  9  1  0
  8 10  1  0
 10 11  2  0
  3 12  1  0
 12 13  2  0
 12 14  1  0
 14 15  1  0
 15 16  1  0
 16 17  1  0
 17 18  1  0
 18 19  1  0
 19 20  1  0
 20 21  1  0
 20 22  1  0
 22 23  1  0
 11  5  1  0
 21 15  1  0
 22 17  1  0
M  END
>  <ChemBL_ID>  (185) 
CHEMBL49584

>  <Ki>  (185) 
85.0

>  <database>  (185) 
SRSLDB

$$$$

     RDKit          2D

 26 29  0  0  0  0  0  0  0  0999 V2000
   -4.8462   -2.5981    0.0000 F   0  0  0  0  0  0  0  0  0  0  0  0
   -5.5962   -1.2990    0.0000 C   0  0  0  0  0  0  0  0  0  0  0  0
   -7.0962   -1.2990    0.0000 C   0  0  0  0  0  0  0  0  0  0  0  0
   -7.8462    0.0000    0.0000 C   0  0  0  0  0  0  0  0  0  0  0  0
   -7.0962    1.2990    0.0000 C   0  0  0  0  0  0  0  0  0  0  0  0
   -5.5962    1.2990    0.0000 C   0  0  0  0  0  0  0  0  0  0  0  0
   -4.8462    2.5981    0.0000 F   0  0  0  0  0  0  0  0  0  0  0  0
   -4.8462    0.0000    0.0000 C   0  0  0  0  0  0  0  0  0  0  0  0
   -3.3462    0.0000    0.0000 C   0  0  0  0  0  0  0  0  0  0  0  0
   -2.5962   -1.2990    0.0000 C   0  0  0  0  0  0  0  0  0  0  0  0
   -1.0962   -1.2990    0.0000 C   0  0  0  0  0  0  0  0  0  0  0  0
   -0.3462   -0.0000    0.0000 C   0  0  0  0  0  0  0  0  0  0  0  0
    1.1538   -0.0000    0.0000 N   0  0  0  0  0  0  0  0  0  0  0  0
    1.9038   -1.2990    0.0000 C   0  0  0  0  0  0  0  0  0  0  0  0
    3.4038   -1.2990    0.0000 C   0  0  0  0  0  0  0  0  0  0  0  0
    4.1538    0.0000    0.0000 N   0  0  0  0  0  0  0  0  0  0  0  0
    5.6538    0.0000    0.0000 C   0  0  0  0  0  0  0  0  0  0  0  0
    6.4038   -1.2990    0.0000 C   0  0  0  0  0  0  0  0  0  0  0  0
    7.9038   -1.2990    0.0000 C   0  0  0  0  0  0  0  0  0  0  0  0
    8.6538    0.0000    0.0000 C   0  0  0  0  0  0  0  0  0  0  0  0
    7.9038    1.2990    0.0000 C   0  0  0  0  0  0  0  0  0  0  0  0
    6.4038    1.2990    0.0000 N   0  0  0  0  0  0  0  0  0  0  0  0
    3.4038    1.2990    0.0000 C   0  0  0  0  0  0  0  0  0  0  0  0
    1.9038    1.2990    0.0000 C   0  0  0  0  0  0  0  0  0  0  0  0
   -1.0962    1.2990    0.0000 C   0  0  0  0  0  0  0  0  0  0  0  0
   -2.5962    1.2990    0.0000 C   0  0  0  0  0  0  0  0  0  0  0  0
  1  2  1  0
  2  3  2  0
  3  4  1  0
  4  5  2  0
  5  6  1  0
  6  7  1  0
  6  8  2  0
  9  8  1  6
  9 10  1  0
 10 11  1  0
 11 12  1  0
 12 13  1  6
 13 14  1  0
 14 15  1  0
 15 16  1  0
 16 17  1  0
 17 18  2  0
 18 19  1  0
 19 20  2  0
 20 21  1  0
 21 22  2  0
 16 23  1  0
 23 24  1  0
 12 25  1  0
 25 26  1  0
  8  2  1  0
 26  9  1  0
 24 13  1  0
 22 17  1  0
M  END
>  <ChemBL_ID>  (186) 
CHEMBL511507

>  <Ki>  (186) 
440.0

>  <database>  (186) 
SRSLDB

$$$$

     RDKit          2D

 23 25  0  0  0  0  0  0  0  0999 V2000
    7.1171   -2.7101    0.0000 C   0  0  0  0  0  0  0  0  0  0  0  0
    6.8404   -1.2358    0.0000 O   0  0  0  0  0  0  0  0  0  0  0  0
    5.4254   -0.7382    0.0000 C   0  0  0  0  0  0  0  0  0  0  0  0
    4.2869   -1.7149    0.0000 C   0  0  0  0  0  0  0  0  0  0  0  0
    2.8719   -1.2174    0.0000 C   0  0  0  0  0  0  0  0  0  0  0  0
    2.5952    0.2569    0.0000 C   0  0  0  0  0  0  0  0  0  0  0  0
    1.1801    0.7544    0.0000 C   0  0  0  0  0  0  0  0  0  0  0  0
    0.0417   -0.2223    0.0000 C   0  0  0  0  0  0  0  0  0  0  0  0
   -1.3734    0.2753    0.0000 C   0  0  0  0  0  0  0  0  0  0  0  0
   -2.5118   -0.7015    0.0000 C   0  0  0  0  0  0  0  0  0  0  0  0
   -3.9269   -0.2039    0.0000 N   0  0  0  0  0  0  0  0  0  0  0  0
   -4.2035    1.2704    0.0000 C   0  0  0  0  0  0  0  0  0  0  0  0
   -5.6186    1.7679    0.0000 C   0  0  0  0  0  0  0  0  0  0  0  0
   -6.7570    0.7912    0.0000 C   0  0  0  0  0  0  0  0  0  0  0  0
   -6.4804   -0.6831    0.0000 C   0  0  0  0  0  0  0  0  0  0  0  0
   -5.0653   -1.1806    0.0000 C   0  0  0  0  0  0  0  0  0  0  0  0
   -3.9057   -2.1321    0.0000 C   0  0  0  0  0  0  0  0  0  0  0  0
   -5.8010   -2.4878    0.0000 C   0  0  0  0  0  0  0  0  0  0  0  0
    0.9035    2.2287    0.0000 C   0  0  0  0  0  0  0  0  0  0  0  0
    2.0419    3.2054    0.0000 C   0  0  0  0  0  0  0  0  0  0  0  0
    3.4570    2.7079    0.0000 C   0  0  0  0  0  0  0  0  0  0  0  0
    3.7337    1.2336    0.0000 C   0  0  0  0  0  0  0  0  0  0  0  0
    5.1487    0.7360    0.0000 C   0  0  0  0  0  0  0  0  0  0  0  0
  1  2  1  0
  2  3  1  0
  3  4  2  0
  4  5  1  0
  5  6  2  0
  6  7  1  0
  7  8  1  0
  8  9  1  0
  9 10  1  0
 10 11  1  0
 11 12  1  0
 12 13  1  0
 13 14  1  0
 14 15  1  0
 15 16  1  0
 16 17  1  0
 16 18  1  0
  7 19  2  0
 19 20  1  0
 20 21  2  0
 21 22  1  0
 22 23  2  0
 23  3  1  0
 22  6  1  0
 16 11  1  0
M  END
>  <ChemBL_ID>  (187) 
CHEMBL1190213

>  <Ki>  (187) 
94.0

>  <database>  (187) 
SRSLDB

$$$$

     RDKit          2D

 40 44  0  0  0  0  0  0  0  0999 V2000
  -12.1464   -0.4782    0.0000 C   0  0  0  0  0  0  0  0  0  0  0  0
  -11.0653   -1.5180    0.0000 O   0  0  0  0  0  0  0  0  0  0  0  0
   -9.6242   -1.1016    0.0000 C   0  0  0  0  0  0  0  0  0  0  0  0
   -9.2643    0.3546    0.0000 C   0  0  0  0  0  0  0  0  0  0  0  0
   -7.8233    0.7710    0.0000 C   0  0  0  0  0  0  0  0  0  0  0  0
   -6.7421   -0.2687    0.0000 C   0  0  0  0  0  0  0  0  0  0  0  0
   -7.1020   -1.7249    0.0000 C   0  0  0  0  0  0  0  0  0  0  0  0
   -8.5431   -2.1413    0.0000 C   0  0  0  0  0  0  0  0  0  0  0  0
   -8.9029   -3.5975    0.0000 O   0  0  0  0  0  0  0  0  0  0  0  0
   -7.8218   -4.6373    0.0000 C   0  0  0  0  0  0  0  0  0  0  0  0
   -5.3011    0.1477    0.0000 C   0  0  0  0  0  0  0  0  0  0  0  0
   -4.9412    1.6039    0.0000 N   0  0  0  0  0  0  0  0  0  0  0  0
   -3.5002    2.0203    0.0000 C   0  0  0  0  0  0  0  0  0  0  0  0
   -2.4190    0.9806    0.0000 C   0  0  0  0  0  0  0  0  0  0  0  0
   -0.9780    1.3970    0.0000 C   0  0  0  0  0  0  0  0  0  0  0  0
    0.1032    0.3572    0.0000 N   0  0  0  0  0  0  0  0  0  0  0  0
    1.5442    0.7737    0.0000 C   0  0  0  0  0  0  0  0  0  0  0  0
    2.6254   -0.2661    0.0000 C   0  0  0  0  0  0  0  0  0  0  0  0
    4.0664    0.1503    0.0000 C   0  0  0  0  0  0  0  0  0  0  0  0
    5.1475   -0.8894    0.0000 N   0  0  0  0  0  0  0  0  0  0  0  0
    4.9419   -2.3753    0.0000 N   0  0  0  0  0  0  0  0  0  0  0  0
    6.2914   -3.0300    0.0000 C   0  0  0  0  0  0  0  0  0  0  0  0
    6.5549   -4.5067    0.0000 C   0  0  0  0  0  0  0  0  0  0  0  0
    7.3312   -1.9489    0.0000 C   0  0  0  0  0  0  0  0  0  0  0  0
    6.6242   -0.6259    0.0000 C   0  0  0  0  0  0  0  0  0  0  0  0
    7.4165    0.6478    0.0000 C   0  0  0  0  0  0  0  0  0  0  0  0
    8.9157    0.5985    0.0000 C   0  0  0  0  0  0  0  0  0  0  0  0
   10.3413    1.0650    0.0000 C   0  0  0  0  0  0  0  0  0  0  0  0
    8.7038    2.0835    0.0000 C   0  0  0  0  0  0  0  0  0  0  0  0
    9.6226   -0.7244    0.0000 C   0  0  0  0  0  0  0  0  0  0  0  0
    8.8303   -1.9981    0.0000 C   0  0  0  0  0  0  0  0  0  0  0  0
    9.5373   -3.3211    0.0000 O   0  0  0  0  0  0  0  0  0  0  0  0
    4.4263    1.6065    0.0000 C   0  0  0  0  0  0  0  0  0  0  0  0
    3.3451    2.6463    0.0000 C   0  0  0  0  0  0  0  0  0  0  0  0
    1.9041    2.2299    0.0000 C   0  0  0  0  0  0  0  0  0  0  0  0
    0.8229    3.2696    0.0000 C   0  0  0  0  0  0  0  0  0  0  0  0
    1.1828    4.7258    0.0000 N   0  0  0  0  0  0  0  0  0  0  0  0
   -0.6181    2.8532    0.0000 O   0  0  0  0  0  0  0  0  0  0  0  0
   -6.0224    2.6437    0.0000 C   0  0  0  0  0  0  0  0  0  0  0  0
   -7.4634    2.2272    0.0000 C   0  0  0  0  0  0  0  0  0  0  0  0
  1  2  1  0
  2  3  1  0
  3  4  2  0
  4  5  1  0
  5  6  2  0
  6  7  1  0
  7  8  2  0
  8  9  1  0
  9 10  1  0
  6 11  1  0
 11 12  1  0
 12 13  1  0
 13 14  1  0
 14 15  1  0
 15 16  1  0
 16 17  1  0
 17 18  2  0
 18 19  1  0
 19 20  1  0
 20 21  1  0
 21 22  2  0
 22 23  1  0
 22 24  1  0
 24 25  2  0
 25 26  1  0
 26 27  1  0
 27 28  1  0
 27 29  1  0
 27 30  1  0
 30 31  1  0
 31 32  2  0
 19 33  2  0
 33 34  1  0
 34 35  2  0
 35 36  1  0
 36 37  1  0
 36 38  2  0
 12 39  1  0
 39 40  1  0
  8  3  1  0
 35 17  1  0
 40  5  1  0
 25 20  1  0
 31 24  1  0
M  END
>  <Ki>  (188) 
89.8

>  <database>  (188) 
SRSLDB

$$$$

     RDKit          2D

 21 26  0  0  0  0  0  0  0  0999 V2000
    5.5266    2.4643    0.0000 F   0  0  0  0  0  0  0  0  0  0  0  0
    5.2040    0.9994    0.0000 C   0  0  0  0  0  0  0  0  0  0  0  0
    6.3113   -0.0125    0.0000 C   0  0  0  0  0  0  0  0  0  0  0  0
    5.9887   -1.4774    0.0000 C   0  0  0  0  0  0  0  0  0  0  0  0
    4.5587   -1.9304    0.0000 C   0  0  0  0  0  0  0  0  0  0  0  0
    3.4514   -0.9186    0.0000 C   0  0  0  0  0  0  0  0  0  0  0  0
    2.0215   -1.3716    0.0000 C   0  0  0  0  0  0  0  0  0  0  0  0
    0.9141   -0.3598    0.0000 C   0  0  0  0  0  0  0  0  0  0  0  0
   -0.5158   -0.8128    0.0000 N   0  0  0  0  0  0  0  0  0  0  0  0
   -1.6231    0.1990    0.0000 C   0  0  0  0  0  0  0  0  0  0  0  0
   -1.4554    1.6896    0.0000 C   0  0  0  0  0  0  0  0  0  0  0  0
   -2.3680    0.4991    0.0000 C   0  0  0  0  0  0  0  0  0  0  0  0
   -2.4065   -1.0004    0.0000 C   0  0  0  0  0  0  0  0  0  0  0  0
   -3.8445   -1.4271    0.0000 C   0  0  0  0  0  0  0  0  0  0  0  0
   -4.6947   -0.1914    0.0000 C   0  0  0  0  0  0  0  0  0  0  0  0
   -3.7822    0.9991    0.0000 C   0  0  0  0  0  0  0  0  0  0  0  0
   -3.7437    2.4986    0.0000 C   0  0  0  0  0  0  0  0  0  0  0  0
   -2.3056    2.9254    0.0000 C   0  0  0  0  0  0  0  0  0  0  0  0
   -5.9305   -1.0416    0.0000 C   0  0  0  0  0  0  0  0  0  0  0  0
   -5.0803   -2.2773    0.0000 C   0  0  0  0  0  0  0  0  0  0  0  0
    3.7740    0.5463    0.0000 C   0  0  0  0  0  0  0  0  0  0  0  0
  1  2  1  0
  2  3  2  0
  3  4  1  0
  4  5  2  0
  5  6  1  0
  6  7  1  0
  7  8  1  0
  8  9  1  0
  9 10  1  0
 10 11  1  0
 11 12  1  0
 12 13  1  0
 13 14  1  0
 14 15  1  0
 15 16  1  0
 16 17  1  0
 17 18  1  0
 18 19  1  0
 19 20  1  0
  6 21  2  0
 21  2  1  0
 20 10  1  0
 18 11  1  0
 16 12  1  0
 20 14  1  0
 19 15  1  0
M  END
>  <ChemBL_ID>  (189) 
CHEMBL1643900

>  <Ki>  (189) 
6.0

>  <database>  (189) 
SRSLDB

$$$$

     RDKit          2D

 27 30  0  0  0  0  0  0  0  0999 V2000
    5.7097   -3.6854    0.0000 O   0  0  0  0  0  0  0  0  0  0  0  0
    5.9812   -2.2102    0.0000 C   0  0  0  0  0  0  0  0  0  0  0  0
    7.3342   -1.5627    0.0000 O   0  0  0  0  0  0  0  0  0  0  0  0
    7.1365   -0.0758    0.0000 C   0  0  0  0  0  0  0  0  0  0  0  0
    8.1093    1.0661    0.0000 C   0  0  0  0  0  0  0  0  0  0  0  0
    7.6068    2.4794    0.0000 C   0  0  0  0  0  0  0  0  0  0  0  0
    6.1315    2.7509    0.0000 C   0  0  0  0  0  0  0  0  0  0  0  0
    5.1588    1.6090    0.0000 C   0  0  0  0  0  0  0  0  0  0  0  0
    5.6613    0.1957    0.0000 C   0  0  0  0  0  0  0  0  0  0  0  0
    4.9473   -1.1234    0.0000 N   0  0  0  0  0  0  0  0  0  0  0  0
    3.4603   -1.3211    0.0000 C   0  0  0  0  0  0  0  0  0  0  0  0
    2.5457   -0.1322    0.0000 C   0  0  0  0  0  0  0  0  0  0  0  0
    1.0588   -0.3299    0.0000 C   0  0  0  0  0  0  0  0  0  0  0  0
    0.1441    0.8590    0.0000 C   0  0  0  0  0  0  0  0  0  0  0  0
   -1.3428    0.6613    0.0000 N   0  0  0  0  0  0  0  0  0  0  0  0
   -2.2575    1.8502    0.0000 C   0  0  0  0  0  0  0  0  0  0  0  0
   -3.7444    1.6525    0.0000 C   0  0  0  0  0  0  0  0  0  0  0  0
   -4.3166    0.2660    0.0000 N   0  0  0  0  0  0  0  0  0  0  0  0
   -5.8036    0.0683    0.0000 C   0  0  0  0  0  0  0  0  0  0  0  0
   -6.7182    1.2572    0.0000 C   0  0  0  0  0  0  0  0  0  0  0  0
   -8.2051    1.0595    0.0000 C   0  0  0  0  0  0  0  0  0  0  0  0
   -8.7774   -0.3271    0.0000 C   0  0  0  0  0  0  0  0  0  0  0  0
  -10.2643   -0.5247    0.0000 F   0  0  0  0  0  0  0  0  0  0  0  0
   -7.8627   -1.5159    0.0000 C   0  0  0  0  0  0  0  0  0  0  0  0
   -6.3758   -1.3183    0.0000 C   0  0  0  0  0  0  0  0  0  0  0  0
   -3.4020   -0.9229    0.0000 C   0  0  0  0  0  0  0  0  0  0  0  0
   -1.9151   -0.7252    0.0000 C   0  0  0  0  0  0  0  0  0  0  0  0
  1  2  2  0
  2  3  1  0
  3  4  1  0
  4  5  2  0
  5  6  1  0
  6  7  2  0
  7  8  1  0
  8  9  2  0
  9 10  1  0
 10 11  1  0
 11 12  1  0
 12 13  1  0
 13 14  1  0
 14 15  1  0
 15 16  1  0
 16 17  1  0
 17 18  1  0
 18 19  1  0
 19 20  2  0
 20 21  1  0
 21 22  2  0
 22 23  1  0
 22 24  1  0
 24 25  2  0
 18 26  1  0
 26 27  1  0
 10  2  1  0
 27 15  1  0
  9  4  1  0
 25 19  1  0
M  END
>  <Ki>  (190) 
0.7

>  <database>  (190) 
SRSLDB

$$$$

     RDKit          2D

 26 28  0  0  0  0  0  0  0  0999 V2000
   -8.8115    0.4498    0.0000 C   0  0  0  0  0  0  0  0  0  0  0  0
   -7.8373   -0.6908    0.0000 O   0  0  0  0  0  0  0  0  0  0  0  0
   -6.3624   -0.4174    0.0000 C   0  0  0  0  0  0  0  0  0  0  0  0
   -5.8618    0.9966    0.0000 C   0  0  0  0  0  0  0  0  0  0  0  0
   -4.3869    1.2701    0.0000 C   0  0  0  0  0  0  0  0  0  0  0  0
   -3.4127    0.1295    0.0000 C   0  0  0  0  0  0  0  0  0  0  0  0
   -3.9133   -1.2845    0.0000 C   0  0  0  0  0  0  0  0  0  0  0  0
   -5.3882   -1.5579    0.0000 C   0  0  0  0  0  0  0  0  0  0  0  0
   -5.8888   -2.9719    0.0000 O   0  0  0  0  0  0  0  0  0  0  0  0
   -4.9146   -4.1125    0.0000 C   0  0  0  0  0  0  0  0  0  0  0  0
   -1.9378    0.4029    0.0000 C   0  0  0  0  0  0  0  0  0  0  0  0
   -1.4372    1.8169    0.0000 N   0  0  0  0  0  0  0  0  0  0  0  0
    0.0377    2.0904    0.0000 C   0  0  0  0  0  0  0  0  0  0  0  0
    1.0119    0.9498    0.0000 C   0  0  0  0  0  0  0  0  0  0  0  0
    2.4868    1.2233    0.0000 C   0  0  0  0  0  0  0  0  0  0  0  0
    3.4610    0.0827    0.0000 C   0  0  0  0  0  0  0  0  0  0  0  0
    4.9359    0.3561    0.0000 N   0  0  0  0  0  0  0  0  0  0  0  0
    5.9101   -0.7844    0.0000 C   0  0  0  0  0  0  0  0  0  0  0  0
    5.4095   -2.1984    0.0000 O   0  0  0  0  0  0  0  0  0  0  0  0
    7.3850   -0.5110    0.0000 C   0  0  0  0  0  0  0  0  0  0  0  0
    8.0307    0.8429    0.0000 C   0  0  0  0  0  0  0  0  0  0  0  0
    9.5178    0.6472    0.0000 N   0  0  0  0  0  0  0  0  0  0  0  0
    9.7913   -0.8277    0.0000 N   0  0  0  0  0  0  0  0  0  0  0  0
    8.4731   -1.5435    0.0000 N   0  0  0  0  0  0  0  0  0  0  0  0
   -2.4114    2.9575    0.0000 C   0  0  0  0  0  0  0  0  0  0  0  0
   -3.8863    2.6841    0.0000 C   0  0  0  0  0  0  0  0  0  0  0  0
  1  2  1  0
  2  3  1  0
  3  4  2  0
  4  5  1  0
  5  6  2  0
  6  7  1  0
  7  8  2  0
  8  9  1  0
  9 10  1  0
  6 11  1  0
 11 12  1  0
 12 13  1  0
 13 14  1  0
 14 15  1  0
 15 16  1  0
 16 17  1  0
 17 18  1  0
 18 19  2  0
 18 20  1  0
 20 21  2  0
 21 22  1  0
 22 23  1  0
 23 24  2  0
 12 25  1  0
 25 26  1  0
  8  3  1  0
 24 20  1  0
 26  5  1  0
M  END
>  <ChemBL_ID>  (191) 
CHEMBL3262520

>  <Ki>  (191) 
1023.0

>  <database>  (191) 
SRSLDB

$$$$

     RDKit          2D

 26 29  0  0  0  0  0  0  0  0999 V2000
    5.3422   -3.6662    0.0000 O   0  0  0  0  0  0  0  0  0  0  0  0
    5.6027   -2.1890    0.0000 C   0  0  0  0  0  0  0  0  0  0  0  0
    6.9510   -1.5315    0.0000 S   0  0  0  0  0  0  0  0  0  0  0  0
    6.7423   -0.0461    0.0000 C   0  0  0  0  0  0  0  0  0  0  0  0
    7.7065    1.1029    0.0000 C   0  0  0  0  0  0  0  0  0  0  0  0
    7.1936    2.5125    0.0000 C   0  0  0  0  0  0  0  0  0  0  0  0
    5.7164    2.7730    0.0000 C   0  0  0  0  0  0  0  0  0  0  0  0
    4.7522    1.6240    0.0000 C   0  0  0  0  0  0  0  0  0  0  0  0
    5.2651    0.2145    0.0000 C   0  0  0  0  0  0  0  0  0  0  0  0
    4.5608   -1.1099    0.0000 N   0  0  0  0  0  0  0  0  0  0  0  0
    3.0754   -1.3186    0.0000 C   0  0  0  0  0  0  0  0  0  0  0  0
    2.1520   -0.1365    0.0000 C   0  0  0  0  0  0  0  0  0  0  0  0
    0.6666   -0.3452    0.0000 C   0  0  0  0  0  0  0  0  0  0  0  0
   -0.2569    0.8369    0.0000 C   0  0  0  0  0  0  0  0  0  0  0  0
   -1.7423    0.6283    0.0000 N   0  0  0  0  0  0  0  0  0  0  0  0
   -2.6657    1.8103    0.0000 C   0  0  0  0  0  0  0  0  0  0  0  0
   -4.1511    1.6017    0.0000 C   0  0  0  0  0  0  0  0  0  0  0  0
   -4.7131    0.2109    0.0000 N   0  0  0  0  0  0  0  0  0  0  0  0
   -6.1985    0.0023    0.0000 C   0  0  0  0  0  0  0  0  0  0  0  0
   -7.1219    1.1843    0.0000 C   0  0  0  0  0  0  0  0  0  0  0  0
   -8.6074    0.9757    0.0000 C   0  0  0  0  0  0  0  0  0  0  0  0
   -9.1694   -0.4151    0.0000 C   0  0  0  0  0  0  0  0  0  0  0  0
   -8.2459   -1.5971    0.0000 C   0  0  0  0  0  0  0  0  0  0  0  0
   -6.7605   -1.3885    0.0000 C   0  0  0  0  0  0  0  0  0  0  0  0
   -3.7897   -0.9712    0.0000 C   0  0  0  0  0  0  0  0  0  0  0  0
   -2.3043   -0.7625    0.0000 C   0  0  0  0  0  0  0  0  0  0  0  0
  1  2  2  0
  2  3  1  0
  3  4  1  0
  4  5  2  0
  5  6  1  0
  6  7  2  0
  7  8  1  0
  8  9  2  0
  9 10  1  0
 10 11  1  0
 11 12  1  0
 12 13  1  0
 13 14  1  0
 14 15  1  0
 15 16  1  0
 16 17  1  0
 17 18  1  0
 18 19  1  0
 19 20  1  0
 20 21  1  0
 21 22  1  0
 22 23  1  0
 23 24  1  0
 18 25  1  0
 25 26  1  0
 10  2  1  0
 26 15  1  0
  9  4  1  0
 24 19  1  0
M  END
>  <ChemBL_ID>  (192) 
CHEMBL270341

>  <Ki>  (192) 
0.39

>  <database>  (192) 
SRSLDB

$$$$

     RDKit          2D

 28 31  0  0  0  0  0  0  0  0999 V2000
   -8.1391   -3.0821    0.0000 C   0  0  0  0  0  0  0  0  0  0  0  0
   -6.6856   -2.7117    0.0000 O   0  0  0  0  0  0  0  0  0  0  0  0
   -6.2796   -1.2677    0.0000 C   0  0  0  0  0  0  0  0  0  0  0  0
   -7.3272   -0.1941    0.0000 C   0  0  0  0  0  0  0  0  0  0  0  0
   -6.9212    1.2499    0.0000 C   0  0  0  0  0  0  0  0  0  0  0  0
   -5.4677    1.6204    0.0000 C   0  0  0  0  0  0  0  0  0  0  0  0
   -4.7703    2.9484    0.0000 N   0  0  0  0  0  0  0  0  0  0  0  0
   -3.2918    2.6956    0.0000 C   0  0  0  0  0  0  0  0  0  0  0  0
   -3.0753    1.2113    0.0000 C   0  0  0  0  0  0  0  0  0  0  0  0
   -1.7473    0.5140    0.0000 C   0  0  0  0  0  0  0  0  0  0  0  0
   -1.6872   -0.9848    0.0000 O   0  0  0  0  0  0  0  0  0  0  0  0
   -0.4793    1.3154    0.0000 C   0  0  0  0  0  0  0  0  0  0  0  0
    0.8487    0.6181    0.0000 N   0  0  0  0  0  0  0  0  0  0  0  0
    0.9088   -0.8807    0.0000 C   0  0  0  0  0  0  0  0  0  0  0  0
    2.2369   -1.5780    0.0000 C   0  0  0  0  0  0  0  0  0  0  0  0
    3.5048   -0.7766    0.0000 C   0  0  0  0  0  0  0  0  0  0  0  0
    4.0739   -2.1644    0.0000 O   0  0  0  0  0  0  0  0  0  0  0  0
    4.9704   -0.4571    0.0000 C   0  0  0  0  0  0  0  0  0  0  0  0
    5.9799   -1.5666    0.0000 C   0  0  0  0  0  0  0  0  0  0  0  0
    7.4455   -1.2471    0.0000 C   0  0  0  0  0  0  0  0  0  0  0  0
    7.9016    0.1819    0.0000 C   0  0  0  0  0  0  0  0  0  0  0  0
    9.3672    0.5013    0.0000 Cl  0  0  0  0  0  0  0  0  0  0  0  0
    6.8921    1.2914    0.0000 C   0  0  0  0  0  0  0  0  0  0  0  0
    5.4265    0.9719    0.0000 C   0  0  0  0  0  0  0  0  0  0  0  0
    3.4447    0.7222    0.0000 C   0  0  0  0  0  0  0  0  0  0  0  0
    2.1166    1.4196    0.0000 C   0  0  0  0  0  0  0  0  0  0  0  0
   -4.4201    0.5468    0.0000 C   0  0  0  0  0  0  0  0  0  0  0  0
   -4.8261   -0.8973    0.0000 C   0  0  0  0  0  0  0  0  0  0  0  0
  1  2  1  0
  2  3  1  0
  3  4  2  0
  4  5  1  0
  5  6  2  0
  6  7  1  0
  7  8  1  0
  8  9  2  0
  9 10  1  0
 10 11  2  0
 10 12  1  0
 12 13  1  0
 13 14  1  0
 14 15  1  0
 15 16  1  0
 16 17  1  0
 16 18  1  0
 18 19  2  0
 19 20  1  0
 20 21  2  0
 21 22  1  0
 21 23  1  0
 23 24  2  0
 16 25  1  0
 25 26  1  0
  9 27  1  0
 27 28  2  0
 28  3  1  0
 27  6  1  0
 26 13  1  0
 24 18  1  0
M  END
>  <ChemBL_ID>  (193) 
CHEMBL3099036

>  <Ki>  (193) 
7.5

>  <database>  (193) 
SRSLDB

$$$$

     RDKit          2D

 20 25  0  0  0  0  0  0  0  0999 V2000
    6.5376    1.1478    0.0000 F   0  0  0  0  0  0  0  0  0  0  0  0
    5.2975    0.3041    0.0000 C   0  0  0  0  0  0  0  0  0  0  0  0
    5.4081   -1.1919    0.0000 C   0  0  0  0  0  0  0  0  0  0  0  0
    4.1679   -2.0356    0.0000 C   0  0  0  0  0  0  0  0  0  0  0  0
    2.8171   -1.3835    0.0000 C   0  0  0  0  0  0  0  0  0  0  0  0
    2.7065    0.1124    0.0000 C   0  0  0  0  0  0  0  0  0  0  0  0
    1.3556    0.7646    0.0000 C   0  0  0  0  0  0  0  0  0  0  0  0
    0.1155   -0.0792    0.0000 N   0  0  0  0  0  0  0  0  0  0  0  0
   -1.2354    0.5730    0.0000 C   0  0  0  0  0  0  0  0  0  0  0  0
   -1.5018    2.0491    0.0000 C   0  0  0  0  0  0  0  0  0  0  0  0
   -2.0349    0.6471    0.0000 C   0  0  0  0  0  0  0  0  0  0  0  0
   -1.6422   -0.8006    0.0000 C   0  0  0  0  0  0  0  0  0  0  0  0
   -2.8977   -1.6215    0.0000 C   0  0  0  0  0  0  0  0  0  0  0  0
   -4.0663   -0.6811    0.0000 C   0  0  0  0  0  0  0  0  0  0  0  0
   -3.5331    0.7209    0.0000 C   0  0  0  0  0  0  0  0  0  0  0  0
   -3.9259    2.1686    0.0000 C   0  0  0  0  0  0  0  0  0  0  0  0
   -2.6704    2.9895    0.0000 C   0  0  0  0  0  0  0  0  0  0  0  0
   -5.0067   -1.8498    0.0000 C   0  0  0  0  0  0  0  0  0  0  0  0
   -3.8380   -2.7901    0.0000 C   0  0  0  0  0  0  0  0  0  0  0  0
    3.9466    0.9562    0.0000 C   0  0  0  0  0  0  0  0  0  0  0  0
  1  2  1  0
  2  3  2  0
  3  4  1  0
  4  5  2  0
  5  6  1  0
  6  7  1  0
  7  8  1  0
  8  9  1  0
  9 10  1  0
 10 11  1  0
 11 12  1  0
 12 13  1  0
 13 14  1  0
 14 15  1  0
 15 16  1  0
 16 17  1  0
 17 18  1  0
 18 19  1  0
  6 20  2  0
 20  2  1  0
 19  9  1  0
 17 10  1  0
 15 11  1  0
 19 13  1  0
 18 14  1  0
M  END
>  <ChemBL_ID>  (194) 
CHEMBL1643899

>  <Ki>  (194) 
19.0

>  <database>  (194) 
SRSLDB

$$$$

     RDKit          2D

 30 33  0  0  0  0  0  0  0  0999 V2000
   -9.9370   -0.2002    0.0000 C   0  0  0  0  0  0  0  0  0  0  0  0
   -8.8512   -1.2351    0.0000 O   0  0  0  0  0  0  0  0  0  0  0  0
   -7.4120   -0.8123    0.0000 C   0  0  0  0  0  0  0  0  0  0  0  0
   -7.0586    0.6455    0.0000 C   0  0  0  0  0  0  0  0  0  0  0  0
   -5.6195    1.0684    0.0000 C   0  0  0  0  0  0  0  0  0  0  0  0
   -4.5337    0.0335    0.0000 C   0  0  0  0  0  0  0  0  0  0  0  0
   -4.8870   -1.4243    0.0000 C   0  0  0  0  0  0  0  0  0  0  0  0
   -6.3262   -1.8472    0.0000 C   0  0  0  0  0  0  0  0  0  0  0  0
   -6.6796   -3.3049    0.0000 O   0  0  0  0  0  0  0  0  0  0  0  0
   -5.5938   -4.3399    0.0000 C   0  0  0  0  0  0  0  0  0  0  0  0
   -3.0945    0.4564    0.0000 C   0  0  0  0  0  0  0  0  0  0  0  0
   -2.7411    1.9141    0.0000 N   0  0  0  0  0  0  0  0  0  0  0  0
   -1.3020    2.3370    0.0000 C   0  0  0  0  0  0  0  0  0  0  0  0
   -0.2162    1.3021    0.0000 C   0  0  0  0  0  0  0  0  0  0  0  0
    1.2230    1.7250    0.0000 C   0  0  0  0  0  0  0  0  0  0  0  0
    2.3088    0.6900    0.0000 C   0  0  0  0  0  0  0  0  0  0  0  0
    3.7479    1.1129    0.0000 N   0  0  0  0  0  0  0  0  0  0  0  0
    4.2517    2.5258    0.0000 C   0  0  0  0  0  0  0  0  0  0  0  0
    5.7511    2.4832    0.0000 C   0  0  0  0  0  0  0  0  0  0  0  0
    6.1740    1.0441    0.0000 C   0  0  0  0  0  0  0  0  0  0  0  0
    7.5265    0.3953    0.0000 C   0  0  0  0  0  0  0  0  0  0  0  0
    7.6409   -1.1003    0.0000 C   0  0  0  0  0  0  0  0  0  0  0  0
    8.9933   -1.7490    0.0000 C   0  0  0  0  0  0  0  0  0  0  0  0
    9.1077   -3.2447    0.0000 C   0  0  0  0  0  0  0  0  0  0  0  0
   10.2314   -0.9021    0.0000 O   0  0  0  0  0  0  0  0  0  0  0  0
    6.4028   -1.9472    0.0000 C   0  0  0  0  0  0  0  0  0  0  0  0
    5.0504   -1.2985    0.0000 C   0  0  0  0  0  0  0  0  0  0  0  0
    4.9359    0.1972    0.0000 C   0  0  0  0  0  0  0  0  0  0  0  0
   -3.8269    2.9491    0.0000 C   0  0  0  0  0  0  0  0  0  0  0  0
   -5.2661    2.5262    0.0000 C   0  0  0  0  0  0  0  0  0  0  0  0
  1  2  1  0
  2  3  1  0
  3  4  2  0
  4  5  1  0
  5  6  2  0
  6  7  1  0
  7  8  2  0
  8  9  1  0
  9 10  1  0
  6 11  1  0
 11 12  1  0
 12 13  1  0
 13 14  1  0
 14 15  1  0
 15 16  1  0
 16 17  1  0
 17 18  1  0
 18 19  2  0
 19 20  1  0
 20 21  2  0
 21 22  1  0
 22 23  1  0
 23 24  1  0
 23 25  2  0
 22 26  2  0
 26 27  1  0
 27 28  2  0
 12 29  1  0
 29 30  1  0
  8  3  1  0
 28 17  1  0
 30  5  1  0
 28 20  1  0
M  END
>  <ChemBL_ID>  (195) 
CHEMBL1831160

>  <Ki>  (195) 
1.42

>  <database>  (195) 
SRSLDB

$$$$

     RDKit          2D

 31 34  0  0  0  0  0  0  0  0999 V2000
   -6.4700    2.4899    0.0000 C   0  0  0  0  0  0  0  0  0  0  0  0
   -6.4357    0.9902    0.0000 O   0  0  0  0  0  0  0  0  0  0  0  0
   -5.1199    0.2701    0.0000 C   0  0  0  0  0  0  0  0  0  0  0  0
   -3.8383    1.0496    0.0000 C   0  0  0  0  0  0  0  0  0  0  0  0
   -2.5225    0.3295    0.0000 C   0  0  0  0  0  0  0  0  0  0  0  0
   -1.2409    1.1090    0.0000 O   0  0  0  0  0  0  0  0  0  0  0  0
   -1.2752    2.6086    0.0000 C   0  0  0  0  0  0  0  0  0  0  0  0
   -2.4882   -1.1701    0.0000 C   0  0  0  0  0  0  0  0  0  0  0  0
   -1.1723   -1.8902    0.0000 N   0  0  0  0  0  0  0  0  0  0  0  0
    0.1092   -1.1107    0.0000 C   0  0  0  0  0  0  0  0  0  0  0  0
    0.0749    0.3889    0.0000 O   0  0  0  0  0  0  0  0  0  0  0  0
    1.4251   -1.8308    0.0000 O   0  0  0  0  0  0  0  0  0  0  0  0
    2.7066   -1.0513    0.0000 C   0  0  0  0  0  0  0  0  0  0  0  0
    4.0225   -1.7714    0.0000 C   0  0  0  0  0  0  0  0  0  0  0  0
    5.3040   -0.9919    0.0000 C   0  0  0  0  0  0  0  0  0  0  0  0
    6.5856   -0.2124    0.0000 C   0  0  0  0  0  0  0  0  0  0  0  0
    6.5513    1.2872    0.0000 C   0  0  0  0  0  0  0  0  0  0  0  0
    5.2354    2.0073    0.0000 C   0  0  0  0  0  0  0  0  0  0  0  0
    3.9539    1.2278    0.0000 C   0  0  0  0  0  0  0  0  0  0  0  0
    2.6723    0.4483    0.0000 C   0  0  0  0  0  0  0  0  0  0  0  0
    3.9882   -0.2718    0.0000 N   0  0  0  0  0  0  0  0  0  0  0  0
    2.7066   -1.0513    0.0000 C   0  0  0  0  0  0  0  0  0  0  0  0
    1.3908   -0.3312    0.0000 C   0  0  0  0  0  0  0  0  0  0  0  0
    1.3565    1.1684    0.0000 C   0  0  0  0  0  0  0  0  0  0  0  0
    0.0407    1.8885    0.0000 C   0  0  0  0  0  0  0  0  0  0  0  0
   -1.2409    1.1090    0.0000 C   0  0  0  0  0  0  0  0  0  0  0  0
   -1.2066   -0.3906    0.0000 C   0  0  0  0  0  0  0  0  0  0  0  0
    0.1092   -1.1107    0.0000 C   0  0  0  0  0  0  0  0  0  0  0  0
   -3.7697   -1.9496    0.0000 C   0  0  0  0  0  0  0  0  0  0  0  0
   -5.0856   -1.2295    0.0000 C   0  0  0  0  0  0  0  0  0  0  0  0
   -6.3671   -2.0090    0.0000 Cl  0  0  0  0  0  0  0  0  0  0  0  0
  1  2  1  0
  2  3  1  0
  3  4  2  0
  4  5  1  0
  5  6  1  0
  6  7  1  0
  5  8  2  0
  8  9  1  0
  9 10  1  0
 10 11  2  0
 10 12  1  0
 12 13  1  0
 13 14  1  0
 14 15  1  0
 15 16  1  0
 16 17  1  0
 17 18  1  0
 18 19  1  0
 19 20  1  0
 19 21  1  0
 21 22  1  0
 22 23  1  0
 23 24  2  0
 24 25  1  0
 25 26  2  0
 26 27  1  0
 27 28  2  0
  8 29  1  0
 29 30  2  0
 30 31  1  0
 30  3  1  0
 20 13  1  0
 28 23  1  0
 21 15  1  0
M  END
>  <Ki>  (196) 
22.9

>  <database>  (196) 
SRSLDB

$$$$

     RDKit          2D

 27 30  0  0  0  0  0  0  0  0999 V2000
   -5.1663   -2.7205    0.0000 O   0  0  0  0  0  0  0  0  0  0  0  0
   -4.6261   -1.3212    0.0000 C   0  0  0  0  0  0  0  0  0  0  0  0
   -5.5679   -0.1537    0.0000 C   0  0  0  0  0  0  0  0  0  0  0  0
   -5.0277    1.2457    0.0000 C   0  0  0  0  0  0  0  0  0  0  0  0
   -5.9695    2.4132    0.0000 C   0  0  0  0  0  0  0  0  0  0  0  0
   -7.4514    2.1814    0.0000 C   0  0  0  0  0  0  0  0  0  0  0  0
   -7.9917    0.7820    0.0000 C   0  0  0  0  0  0  0  0  0  0  0  0
   -7.0499   -0.3855    0.0000 C   0  0  0  0  0  0  0  0  0  0  0  0
   -3.1442   -1.0893    0.0000 N   0  0  0  0  0  0  0  0  0  0  0  0
   -2.2024   -2.2568    0.0000 C   0  0  0  0  0  0  0  0  0  0  0  0
   -0.7204   -2.0250    0.0000 C   0  0  0  0  0  0  0  0  0  0  0  0
   -0.1802   -0.6256    0.0000 C   0  0  0  0  0  0  0  0  0  0  0  0
    1.3018   -0.3938    0.0000 N   0  0  0  0  0  0  0  0  0  0  0  0
    2.1536   -1.6284    0.0000 C   0  0  0  0  0  0  0  0  0  0  0  0
    3.6501   -1.7322    0.0000 C   0  0  0  0  0  0  0  0  0  0  0  0
    4.6642   -0.6269    0.0000 C   0  0  0  0  0  0  0  0  0  0  0  0
    6.0635   -1.1671    0.0000 C   0  0  0  0  0  0  0  0  0  0  0  0
    7.2310   -0.2253    0.0000 C   0  0  0  0  0  0  0  0  0  0  0  0
    8.6304   -0.7655    0.0000 O   0  0  0  0  0  0  0  0  0  0  0  0
    6.9992    1.2566    0.0000 C   0  0  0  0  0  0  0  0  0  0  0  0
    5.5998    1.7969    0.0000 C   0  0  0  0  0  0  0  0  0  0  0  0
    4.4323    0.8551    0.0000 C   0  0  0  0  0  0  0  0  0  0  0  0
    3.1291    1.5978    0.0000 C   0  0  0  0  0  0  0  0  0  0  0  0
    3.2329    3.0942    0.0000 O   0  0  0  0  0  0  0  0  0  0  0  0
    1.7359    1.0420    0.0000 C   0  0  0  0  0  0  0  0  0  0  0  0
   -1.1220    0.5419    0.0000 C   0  0  0  0  0  0  0  0  0  0  0  0
   -2.6040    0.3100    0.0000 C   0  0  0  0  0  0  0  0  0  0  0  0
  1  2  2  0
  2  3  1  0
  3  4  2  0
  4  5  1  0
  5  6  2  0
  6  7  1  0
  7  8  2  0
  2  9  1  0
  9 10  1  0
 10 11  1  0
 11 12  1  0
 12 13  1  0
 13 14  1  0
 14 15  1  0
 15 16  1  0
 16 17  2  0
 17 18  1  0
 18 19  1  0
 18 20  2  0
 20 21  1  0
 21 22  2  0
 22 23  1  0
 23 24  1  0
 23 25  1  0
 12 26  1  0
 26 27  1  0
  8  3  1  0
 27  9  1  0
 25 13  1  0
 22 16  1  0
M  END
>  <ChemBL_ID>  (197) 
CHEMBL1289836

>  <Ki>  (197) 
98.0

>  <database>  (197) 
SRSLDB

$$$$

     RDKit          2D

 17 19  0  0  0  0  0  0  0  0999 V2000
    6.0747    1.0513    0.0000 F   0  0  0  0  0  0  0  0  0  0  0  0
    4.7773    0.2985    0.0000 C   0  0  0  0  0  0  0  0  0  0  0  0
    4.7806   -1.2015    0.0000 C   0  0  0  0  0  0  0  0  0  0  0  0
    3.4832   -1.9544    0.0000 C   0  0  0  0  0  0  0  0  0  0  0  0
    2.1825   -1.2073    0.0000 C   0  0  0  0  0  0  0  0  0  0  0  0
    2.1792    0.2927    0.0000 C   0  0  0  0  0  0  0  0  0  0  0  0
    0.8785    1.0399    0.0000 C   0  0  0  0  0  0  0  0  0  0  0  0
   -0.4189    0.2870    0.0000 C   0  0  0  0  0  0  0  0  0  0  0  0
   -1.7196    1.0342    0.0000 C   0  0  0  0  0  0  0  0  0  0  0  0
   -3.0169    0.2813    0.0000 N   0  0  0  0  0  0  0  0  0  0  0  0
   -3.1704   -1.2108    0.0000 C   0  0  0  0  0  0  0  0  0  0  0  0
   -4.6370   -1.5259    0.0000 C   0  0  0  0  0  0  0  0  0  0  0  0
   -5.3898   -0.2285    0.0000 C   0  0  0  0  0  0  0  0  0  0  0  0
   -4.3886    0.8884    0.0000 C   0  0  0  0  0  0  0  0  0  0  0  0
   -2.9221    1.2035    0.0000 C   0  0  0  0  0  0  0  0  0  0  0  0
   -2.1692   -0.0939    0.0000 C   0  0  0  0  0  0  0  0  0  0  0  0
    3.4766    1.0456    0.0000 C   0  0  0  0  0  0  0  0  0  0  0  0
  1  2  1  0
  2  3  2  0
  3  4  1  0
  4  5  2  0
  5  6  1  0
  6  7  1  0
  7  8  1  0
  8  9  1  0
  9 10  1  0
 10 11  1  0
 11 12  1  0
 12 13  1  0
 13 14  1  0
 14 15  1  0
 15 16  1  0
  6 17  2  0
 17  2  1  0
 14 10  1  0
 16 11  1  0
M  END
>  <ChemBL_ID>  (198) 
CHEMBL2030630

>  <Ki>  (198) 
11.9

>  <database>  (198) 
SRSLDB

$$$$

     RDKit          2D

 33 36  0  0  0  0  0  0  0  0999 V2000
   -4.4699   -3.5827    0.0000 C   0  0  0  0  0  0  0  0  0  0  0  0
   -3.1507   -2.8688    0.0000 O   0  0  0  0  0  0  0  0  0  0  0  0
   -3.1094   -1.3694    0.0000 C   0  0  0  0  0  0  0  0  0  0  0  0
   -4.3872   -0.5839    0.0000 C   0  0  0  0  0  0  0  0  0  0  0  0
   -4.3459    0.9156    0.0000 C   0  0  0  0  0  0  0  0  0  0  0  0
   -3.0267    1.6295    0.0000 C   0  0  0  0  0  0  0  0  0  0  0  0
   -2.9854    3.1289    0.0000 C   0  0  0  0  0  0  0  0  0  0  0  0
   -1.7488    0.8440    0.0000 C   0  0  0  0  0  0  0  0  0  0  0  0
   -1.7902   -0.6555    0.0000 C   0  0  0  0  0  0  0  0  0  0  0  0
   -0.5123   -1.4410    0.0000 N   0  0  0  0  0  0  0  0  0  0  0  0
    0.8069   -0.7271    0.0000 C   0  0  0  0  0  0  0  0  0  0  0  0
    0.8483    0.7724    0.0000 O   0  0  0  0  0  0  0  0  0  0  0  0
    2.0848   -1.5126    0.0000 O   0  0  0  0  0  0  0  0  0  0  0  0
    3.4040   -0.7987    0.0000 C   0  0  0  0  0  0  0  0  0  0  0  0
    4.6819   -1.5842    0.0000 C   0  0  0  0  0  0  0  0  0  0  0  0
    6.0011   -0.8703    0.0000 C   0  0  0  0  0  0  0  0  0  0  0  0
    7.3203   -0.1563    0.0000 C   0  0  0  0  0  0  0  0  0  0  0  0
    7.3617    1.3431    0.0000 C   0  0  0  0  0  0  0  0  0  0  0  0
    6.0838    2.1286    0.0000 C   0  0  0  0  0  0  0  0  0  0  0  0
    4.7646    1.4147    0.0000 C   0  0  0  0  0  0  0  0  0  0  0  0
    3.4454    0.7008    0.0000 C   0  0  0  0  0  0  0  0  0  0  0  0
    4.7232   -0.0847    0.0000 N   0  0  0  0  0  0  0  0  0  0  0  0
    3.4040   -0.7987    0.0000 C   0  0  0  0  0  0  0  0  0  0  0  0
    2.1261   -0.0131    0.0000 C   0  0  0  0  0  0  0  0  0  0  0  0
    0.8069   -0.7271    0.0000 C   0  0  0  0  0  0  0  0  0  0  0  0
   -0.4709    0.0585    0.0000 C   0  0  0  0  0  0  0  0  0  0  0  0
   -1.7902   -0.6555    0.0000 C   0  0  0  0  0  0  0  0  0  0  0  0
   -3.0680    0.1301    0.0000 C   0  0  0  0  0  0  0  0  0  0  0  0
   -3.0267    1.6295    0.0000 C   0  0  0  0  0  0  0  0  0  0  0  0
   -4.3046    2.4150    0.0000 C   0  0  0  0  0  0  0  0  0  0  0  0
   -5.6238    1.7011    0.0000 C   0  0  0  0  0  0  0  0  0  0  0  0
   -5.6651    0.2016    0.0000 C   0  0  0  0  0  0  0  0  0  0  0  0
   -4.3872   -0.5839    0.0000 C   0  0  0  0  0  0  0  0  0  0  0  0
  1  2  1  0
  2  3  1  0
  3  4  2  0
  4  5  1  0
  5  6  2  0
  6  7  1  0
  6  8  1  0
  8  9  2  0
  9 10  1  0
 10 11  1  0
 11 12  2  0
 11 13  1  0
 13 14  1  0
 14 15  1  0
 15 16  1  0
 16 17  1  0
 17 18  1  0
 18 19  1  0
 19 20  1  0
 20 21  1  0
 20 22  1  0
 22 23  1  0
 23 24  1  0
 24 25  1  0
 25 26  1  0
 26 27  1  0
 27 28  1  0
 28 29  2  0
 29 30  1  0
 30 31  2  0
 31 32  1  0
 32 33  2  0
  9  3  1  0
 21 14  1  0
 33 28  1  0
 22 16  1  0
M  END
>  <Ki>  (199) 
1.8

>  <database>  (199) 
SRSLDB

$$$$

     RDKit          2D

 29 32  0  0  0  0  0  0  0  0999 V2000
  -11.8039    0.3352    0.0000 C   0  0  0  0  0  0  0  0  0  0  0  0
  -10.6667   -0.6430    0.0000 O   0  0  0  0  0  0  0  0  0  0  0  0
   -9.2510   -0.1472    0.0000 C   0  0  0  0  0  0  0  0  0  0  0  0
   -8.9724    1.3267    0.0000 C   0  0  0  0  0  0  0  0  0  0  0  0
   -7.5567    1.8225    0.0000 C   0  0  0  0  0  0  0  0  0  0  0  0
   -6.4195    0.8443    0.0000 C   0  0  0  0  0  0  0  0  0  0  0  0
   -6.6981   -0.6296    0.0000 C   0  0  0  0  0  0  0  0  0  0  0  0
   -8.1138   -1.1254    0.0000 C   0  0  0  0  0  0  0  0  0  0  0  0
   -5.5609   -1.6078    0.0000 C   0  0  0  0  0  0  0  0  0  0  0  0
   -4.1452   -1.1120    0.0000 C   0  0  0  0  0  0  0  0  0  0  0  0
   -3.8666    0.3619    0.0000 N   0  0  0  0  0  0  0  0  0  0  0  0
   -2.4509    0.8577    0.0000 C   0  0  0  0  0  0  0  0  0  0  0  0
   -1.3138   -0.1205    0.0000 C   0  0  0  0  0  0  0  0  0  0  0  0
    0.1020    0.3753    0.0000 C   0  0  0  0  0  0  0  0  0  0  0  0
    1.2391   -0.6029    0.0000 C   0  0  0  0  0  0  0  0  0  0  0  0
    2.6549   -0.1071    0.0000 N   0  0  0  0  0  0  0  0  0  0  0  0
    3.7920   -1.0853    0.0000 C   0  0  0  0  0  0  0  0  0  0  0  0
    3.5135   -2.5592    0.0000 O   0  0  0  0  0  0  0  0  0  0  0  0
    5.2078   -0.5895    0.0000 C   0  0  0  0  0  0  0  0  0  0  0  0
    6.4410   -1.4434    0.0000 C   0  0  0  0  0  0  0  0  0  0  0  0
    7.6342   -0.5345    0.0000 C   0  0  0  0  0  0  0  0  0  0  0  0
    9.1081   -0.8130    0.0000 C   0  0  0  0  0  0  0  0  0  0  0  0
   10.0863    0.3242    0.0000 C   0  0  0  0  0  0  0  0  0  0  0  0
   11.5602    0.0457    0.0000 I   0  0  0  0  0  0  0  0  0  0  0  0
    9.5905    1.7399    0.0000 C   0  0  0  0  0  0  0  0  0  0  0  0
    8.1166    2.0184    0.0000 C   0  0  0  0  0  0  0  0  0  0  0  0
    7.1384    0.8812    0.0000 C   0  0  0  0  0  0  0  0  0  0  0  0
    5.6388    0.8472    0.0000 O   0  0  0  0  0  0  0  0  0  0  0  0
   -5.0038    1.3401    0.0000 C   0  0  0  0  0  0  0  0  0  0  0  0
  1  2  1  0
  2  3  1  0
  3  4  2  0
  4  5  1  0
  5  6  2  0
  6  7  1  0
  7  8  2  0
  7  9  1  0
  9 10  1  0
 10 11  1  0
 11 12  1  0
 12 13  1  0
 13 14  1  0
 14 15  1  0
 15 16  1  0
 16 17  1  0
 17 18  2  0
 17 19  1  0
 19 20  2  0
 20 21  1  0
 21 22  2  0
 22 23  1  0
 23 24  1  0
 23 25  2  0
 25 26  1  0
 26 27  2  0
 27 28  1  0
 11 29  1  0
  8  3  1  0
 28 19  1  0
 29  6  1  0
 27 21  1  0
M  END
>  <Ki>  (200) 
133.0

>  <database>  (200) 
SRSLDB

$$$$

     RDKit          2D

 33 36  0  0  0  0  0  0  0  0999 V2000
   -5.3477   -1.9342    0.0000 C   0  0  0  0  0  0  0  0  0  0  0  0
   -3.9171   -1.4830    0.0000 O   0  0  0  0  0  0  0  0  0  0  0  0
   -3.5926   -0.0186    0.0000 C   0  0  0  0  0  0  0  0  0  0  0  0
   -4.6986    0.9947    0.0000 C   0  0  0  0  0  0  0  0  0  0  0  0
   -4.3740    2.4592    0.0000 C   0  0  0  0  0  0  0  0  0  0  0  0
   -2.9435    2.9104    0.0000 C   0  0  0  0  0  0  0  0  0  0  0  0
   -2.6189    4.3748    0.0000 C   0  0  0  0  0  0  0  0  0  0  0  0
   -1.8375    1.8971    0.0000 C   0  0  0  0  0  0  0  0  0  0  0  0
   -2.1620    0.4326    0.0000 C   0  0  0  0  0  0  0  0  0  0  0  0
   -1.0561   -0.5807    0.0000 N   0  0  0  0  0  0  0  0  0  0  0  0
    0.3745   -0.1296    0.0000 C   0  0  0  0  0  0  0  0  0  0  0  0
    0.6990    1.3349    0.0000 O   0  0  0  0  0  0  0  0  0  0  0  0
    1.4805   -1.1429    0.0000 O   0  0  0  0  0  0  0  0  0  0  0  0
    2.9110   -0.6917    0.0000 C   0  0  0  0  0  0  0  0  0  0  0  0
    4.0170   -1.7050    0.0000 C   0  0  0  0  0  0  0  0  0  0  0  0
    5.4476   -1.2538    0.0000 C   0  0  0  0  0  0  0  0  0  0  0  0
    6.8781   -0.8027    0.0000 C   0  0  0  0  0  0  0  0  0  0  0  0
    7.2026    0.6618    0.0000 C   0  0  0  0  0  0  0  0  0  0  0  0
    6.0967    1.6751    0.0000 C   0  0  0  0  0  0  0  0  0  0  0  0
    4.6661    1.2239    0.0000 C   0  0  0  0  0  0  0  0  0  0  0  0
    3.2356    0.7728    0.0000 C   0  0  0  0  0  0  0  0  0  0  0  0
    4.3416   -0.2405    0.0000 N   0  0  0  0  0  0  0  0  0  0  0  0
    2.9110   -0.6917    0.0000 C   0  0  0  0  0  0  0  0  0  0  0  0
    1.8050    0.3216    0.0000 C   0  0  0  0  0  0  0  0  0  0  0  0
    0.3745   -0.1296    0.0000 C   0  0  0  0  0  0  0  0  0  0  0  0
   -0.7315    0.8838    0.0000 C   0  0  0  0  0  0  0  0  0  0  0  0
   -2.1620    0.4326    0.0000 C   0  0  0  0  0  0  0  0  0  0  0  0
   -2.4866   -1.0319    0.0000 C   0  0  0  0  0  0  0  0  0  0  0  0
   -3.9171   -1.4830    0.0000 N   0  0  0  0  0  0  0  0  0  0  0  0
   -4.2417   -2.9475    0.0000 C   0  0  0  0  0  0  0  0  0  0  0  0
   -5.0231   -0.4697    0.0000 C   0  0  0  0  0  0  0  0  0  0  0  0
   -1.3806   -2.0452    0.0000 C   0  0  0  0  0  0  0  0  0  0  0  0
    0.0499   -1.5940    0.0000 C   0  0  0  0  0  0  0  0  0  0  0  0
  1  2  1  0
  2  3  1  0
  3  4  2  0
  4  5  1  0
  5  6  2  0
  6  7  1  0
  6  8  1  0
  8  9  2  0
  9 10  1  0
 10 11  1  0
 11 12  2  0
 11 13  1  0
 13 14  1  0
 14 15  1  0
 15 16  1  0
 16 17  1  0
 17 18  1  0
 18 19  1  0
 19 20  1  0
 20 21  1  0
 20 22  1  0
 22 23  1  0
 23 24  1  0
 24 25  1  0
 25 26  2  0
 26 27  1  0
 27 28  2  0
 28 29  1  0
 29 30  1  0
 29 31  1  0
 28 32  1  0
 32 33  2  0
  9  3  1  0
 21 14  1  0
 33 25  1  0
 22 16  1  0
M  END
>  <ChemBL_ID>  (201) 
CHEMBL480047

>  <Ki>  (201) 
195.2

>  <database>  (201) 
SRSLDB

$$$$

     RDKit          2D

 33 36  0  0  0  0  0  0  0  0999 V2000
   -5.4068   -1.5999    0.0000 C   0  0  0  0  0  0  0  0  0  0  0  0
   -3.9571   -1.2146    0.0000 O   0  0  0  0  0  0  0  0  0  0  0  0
   -3.5660    0.2335    0.0000 C   0  0  0  0  0  0  0  0  0  0  0  0
   -4.6245    1.2963    0.0000 C   0  0  0  0  0  0  0  0  0  0  0  0
   -4.2333    2.7444    0.0000 C   0  0  0  0  0  0  0  0  0  0  0  0
   -2.7836    3.1297    0.0000 C   0  0  0  0  0  0  0  0  0  0  0  0
   -2.3925    4.5778    0.0000 C   0  0  0  0  0  0  0  0  0  0  0  0
   -1.7251    2.0669    0.0000 C   0  0  0  0  0  0  0  0  0  0  0  0
   -2.1163    0.6188    0.0000 C   0  0  0  0  0  0  0  0  0  0  0  0
   -1.0578   -0.4441    0.0000 N   0  0  0  0  0  0  0  0  0  0  0  0
    0.3919   -0.0588    0.0000 C   0  0  0  0  0  0  0  0  0  0  0  0
    0.7831    1.3893    0.0000 O   0  0  0  0  0  0  0  0  0  0  0  0
    1.4504   -1.1216    0.0000 O   0  0  0  0  0  0  0  0  0  0  0  0
    2.9001   -0.7363    0.0000 C   0  0  0  0  0  0  0  0  0  0  0  0
    3.9586   -1.7991    0.0000 C   0  0  0  0  0  0  0  0  0  0  0  0
    5.4082   -1.4138    0.0000 C   0  0  0  0  0  0  0  0  0  0  0  0
    6.8579   -1.0285    0.0000 C   0  0  0  0  0  0  0  0  0  0  0  0
    7.2491    0.4195    0.0000 C   0  0  0  0  0  0  0  0  0  0  0  0
    6.1906    1.4824    0.0000 C   0  0  0  0  0  0  0  0  0  0  0  0
    4.7409    1.0971    0.0000 C   0  0  0  0  0  0  0  0  0  0  0  0
    3.2912    0.7118    0.0000 C   0  0  0  0  0  0  0  0  0  0  0  0
    4.3497   -0.3510    0.0000 N   0  0  0  0  0  0  0  0  0  0  0  0
    2.9001   -0.7363    0.0000 C   0  0  0  0  0  0  0  0  0  0  0  0
    1.8416    0.3265    0.0000 C   0  0  0  0  0  0  0  0  0  0  0  0
    0.3919   -0.0588    0.0000 C   0  0  0  0  0  0  0  0  0  0  0  0
   -0.6666    1.0040    0.0000 C   0  0  0  0  0  0  0  0  0  0  0  0
   -2.1163    0.6188    0.0000 C   0  0  0  0  0  0  0  0  0  0  0  0
   -2.5075   -0.8293    0.0000 C   0  0  0  0  0  0  0  0  0  0  0  0
   -3.9571   -1.2146    0.0000 C   0  0  0  0  0  0  0  0  0  0  0  0
   -4.3483   -2.6627    0.0000 C   0  0  0  0  0  0  0  0  0  0  0  0
   -5.7980   -3.0480    0.0000 F   0  0  0  0  0  0  0  0  0  0  0  0
   -1.4490   -1.8922    0.0000 C   0  0  0  0  0  0  0  0  0  0  0  0
    0.0007   -1.5069    0.0000 C   0  0  0  0  0  0  0  0  0  0  0  0
  1  2  1  0
  2  3  1  0
  3  4  2  0
  4  5  1  0
  5  6  2  0
  6  7  1  0
  6  8  1  0
  8  9  2  0
  9 10  1  0
 10 11  1  0
 11 12  2  0
 11 13  1  0
 13 14  1  0
 14 15  1  0
 15 16  1  0
 16 17  1  0
 17 18  1  0
 18 19  1  0
 19 20  1  0
 20 21  1  0
 20 22  1  0
 22 23  1  0
 23 24  1  0
 24 25  1  0
 25 26  2  0
 26 27  1  0
 27 28  2  0
 28 29  1  0
 29 30  1  0
 30 31  1  0
 28 32  1  0
 32 33  2  0
  9  3  1  0
 21 14  1  0
 33 25  1  0
 22 16  1  0
M  END
>  <ChemBL_ID>  (202) 
CHEMBL517541

>  <Ki>  (202) 
275.8

>  <database>  (202) 
SRSLDB

$$$$

     RDKit          2D

 24 29  0  0  0  0  0  0  0  0999 V2000
   -6.7376    1.9862    0.0000 C   0  0  0  0  0  0  0  0  0  0  0  0
   -6.0334    0.6618    0.0000 O   0  0  0  0  0  0  0  0  0  0  0  0
   -4.5343    0.6094    0.0000 C   0  0  0  0  0  0  0  0  0  0  0  0
   -3.7394    1.8814    0.0000 C   0  0  0  0  0  0  0  0  0  0  0  0
   -2.2403    1.8290    0.0000 C   0  0  0  0  0  0  0  0  0  0  0  0
   -1.5361    0.5046    0.0000 C   0  0  0  0  0  0  0  0  0  0  0  0
   -0.0371    0.4522    0.0000 C   0  0  0  0  0  0  0  0  0  0  0  0
    0.6671   -0.8723    0.0000 N   0  0  0  0  0  0  0  0  0  0  0  0
   -0.1278   -2.1443    0.0000 C   0  0  0  0  0  0  0  0  0  0  0  0
    2.1662   -0.9247    0.0000 C   0  0  0  0  0  0  0  0  0  0  0  0
    3.0049   -2.1683    0.0000 C   0  0  0  0  0  0  0  0  0  0  0  0
    2.9278   -0.6702    0.0000 C   0  0  0  0  0  0  0  0  0  0  0  0
    1.9849    0.4964    0.0000 C   0  0  0  0  0  0  0  0  0  0  0  0
    2.8031    1.7536    0.0000 C   0  0  0  0  0  0  0  0  0  0  0  0
    4.2516    1.3640    0.0000 C   0  0  0  0  0  0  0  0  0  0  0  0
    4.3287   -0.1340    0.0000 C   0  0  0  0  0  0  0  0  0  0  0  0
    5.2716   -1.3006    0.0000 C   0  0  0  0  0  0  0  0  0  0  0  0
    4.4535   -2.5578    0.0000 C   0  0  0  0  0  0  0  0  0  0  0  0
    4.6412    2.8125    0.0000 C   0  0  0  0  0  0  0  0  0  0  0  0
    3.1927    3.2021    0.0000 C   0  0  0  0  0  0  0  0  0  0  0  0
   -2.3311   -0.7675    0.0000 C   0  0  0  0  0  0  0  0  0  0  0  0
   -3.8302   -0.7151    0.0000 C   0  0  0  0  0  0  0  0  0  0  0  0
   -4.6251   -1.9871    0.0000 O   0  0  0  0  0  0  0  0  0  0  0  0
   -3.9209   -3.3115    0.0000 C   0  0  0  0  0  0  0  0  0  0  0  0
  1  2  1  0
  2  3  1  0
  3  4  2  0
  4  5  1  0
  5  6  2  0
  6  7  1  0
  7  8  1  0
  8  9  1  0
  8 10  1  0
 10 11  1  0
 11 12  1  0
 12 13  1  0
 13 14  1  0
 14 15  1  0
 15 16  1  0
 16 17  1  0
 17 18  1  0
 18 19  1  0
 19 20  1  0
  6 21  1  0
 21 22  2  0
 22 23  1  0
 23 24  1  0
 22  3  1  0
 20 10  1  0
 18 11  1  0
 16 12  1  0
 20 14  1  0
 19 15  1  0
M  END
>  <ChemBL_ID>  (203) 
CHEMBL2432056

>  <Ki>  (203) 
27.0

>  <database>  (203) 
SRSLDB

$$$$

     RDKit          2D

 28 31  0  0  0  0  0  0  0  0999 V2000
   -9.6127    0.4959    0.0000 C   0  0  0  0  0  0  0  0  0  0  0  0
   -8.3294   -0.2807    0.0000 O   0  0  0  0  0  0  0  0  0  0  0  0
   -7.0152    0.4424    0.0000 C   0  0  0  0  0  0  0  0  0  0  0  0
   -6.9843    1.9421    0.0000 C   0  0  0  0  0  0  0  0  0  0  0  0
   -5.6700    2.6651    0.0000 C   0  0  0  0  0  0  0  0  0  0  0  0
   -4.3867    1.8885    0.0000 C   0  0  0  0  0  0  0  0  0  0  0  0
   -4.4177    0.3888    0.0000 C   0  0  0  0  0  0  0  0  0  0  0  0
   -5.7319   -0.3342    0.0000 C   0  0  0  0  0  0  0  0  0  0  0  0
   -5.7628   -1.8339    0.0000 C   0  0  0  0  0  0  0  0  0  0  0  0
   -4.4795   -2.6105    0.0000 C   0  0  0  0  0  0  0  0  0  0  0  0
   -3.1653   -1.8875    0.0000 C   0  0  0  0  0  0  0  0  0  0  0  0
   -3.1344   -0.3878    0.0000 C   0  0  0  0  0  0  0  0  0  0  0  0
   -1.8201    0.3353    0.0000 C   0  0  0  0  0  0  0  0  0  0  0  0
   -0.5368   -0.4414    0.0000 C   0  0  0  0  0  0  0  0  0  0  0  0
    0.7774    0.2817    0.0000 C   0  0  0  0  0  0  0  0  0  0  0  0
    2.0607   -0.4949    0.0000 N   0  0  0  0  0  4  0  0  0  0  0  0
    1.0730   -1.6239    0.0000 C   0  0  0  0  0  0  0  0  0  0  0  0
    2.6027    0.9038    0.0000 C   0  0  0  0  0  0  0  0  0  0  0  0
    4.0849    1.1337    0.0000 C   0  0  0  0  0  0  0  0  0  0  0  0
    5.0252   -0.0350    0.0000 N   0  0  0  0  0  0  0  0  0  0  0  0
    6.5075    0.1950    0.0000 C   0  0  0  0  0  0  0  0  0  0  0  0
    7.4478   -0.9737    0.0000 C   0  0  0  0  0  0  0  0  0  0  0  0
    8.9301   -0.7438    0.0000 C   0  0  0  0  0  0  0  0  0  0  0  0
    9.4720    0.6549    0.0000 C   0  0  0  0  0  0  0  0  0  0  0  0
    8.5317    1.8236    0.0000 C   0  0  0  0  0  0  0  0  0  0  0  0
    7.0495    1.5936    0.0000 C   0  0  0  0  0  0  0  0  0  0  0  0
    4.4832   -1.4336    0.0000 C   0  0  0  0  0  0  0  0  0  0  0  0
    3.0010   -1.6636    0.0000 C   0  0  0  0  0  0  0  0  0  0  0  0
  1  2  1  0
  2  3  1  0
  3  4  2  0
  4  5  1  0
  5  6  2  0
  6  7  1  0
  7  8  2  0
  8  9  1  0
  9 10  1  0
 10 11  1  0
 11 12  1  0
 12 13  1  0
 13 14  1  0
 14 15  1  0
 15 16  1  0
 16 17  1  0
 16 18  1  0
 18 19  1  0
 19 20  1  0
 20 21  1  0
 21 22  1  0
 22 23  1  0
 23 24  1  0
 24 25  1  0
 25 26  1  0
 20 27  1  0
 27 28  1  0
  8  3  1  0
 28 16  1  0
 12  7  1  0
 26 21  1  0
M  CHG  1  16   1
M  END
>  <ChemBL_ID>  (204) 
CHEMBL1197700

>  <Ki>  (204) 
6.78

>  <database>  (204) 
SRSLDB

$$$$

     RDKit          2D

 31 34  0  0  0  0  0  0  0  0999 V2000
   -9.8630    1.1685    0.0000 C   0  0  0  0  0  0  0  0  0  0  0  0
   -9.0429   -0.0874    0.0000 O   0  0  0  0  0  0  0  0  0  0  0  0
   -7.5451   -0.0052    0.0000 C   0  0  0  0  0  0  0  0  0  0  0  0
   -6.8675    1.3331    0.0000 C   0  0  0  0  0  0  0  0  0  0  0  0
   -5.3698    1.4153    0.0000 C   0  0  0  0  0  0  0  0  0  0  0  0
   -4.5496    0.1594    0.0000 C   0  0  0  0  0  0  0  0  0  0  0  0
   -5.2272   -1.1788    0.0000 C   0  0  0  0  0  0  0  0  0  0  0  0
   -6.7250   -1.2611    0.0000 C   0  0  0  0  0  0  0  0  0  0  0  0
   -7.4026   -2.5993    0.0000 O   0  0  0  0  0  0  0  0  0  0  0  0
   -6.5825   -3.8553    0.0000 C   0  0  0  0  0  0  0  0  0  0  0  0
   -3.0519    0.2417    0.0000 C   0  0  0  0  0  0  0  0  0  0  0  0
   -2.3743    1.5799    0.0000 N   0  0  0  0  0  0  0  0  0  0  0  0
   -0.8765    1.6622    0.0000 C   0  0  0  0  0  0  0  0  0  0  0  0
   -0.0564    0.4063    0.0000 C   0  0  0  0  0  0  0  0  0  0  0  0
    1.4413    0.4885    0.0000 C   0  0  0  0  0  0  0  0  0  0  0  0
    2.2615   -0.7674    0.0000 C   0  0  0  0  0  0  0  0  0  0  0  0
    3.7592   -0.6851    0.0000 N   0  0  0  0  0  0  0  0  0  0  0  0
    4.5730    0.5750    0.0000 C   0  0  0  0  0  0  0  0  0  0  0  0
    6.0228    0.1904    0.0000 C   0  0  0  0  0  0  0  0  0  0  0  0
    7.1862    1.1373    0.0000 C   0  0  0  0  0  0  0  0  0  0  0  0
    6.9478    2.6182    0.0000 C   0  0  0  0  0  0  0  0  0  0  0  0
    8.1111    3.5652    0.0000 C   0  0  0  0  0  0  0  0  0  0  0  0
    7.8727    5.0461    0.0000 F   0  0  0  0  0  0  0  0  0  0  0  0
    6.1051   -1.3074    0.0000 C   0  0  0  0  0  0  0  0  0  0  0  0
    7.2732   -2.2484    0.0000 C   0  0  0  0  0  0  0  0  0  0  0  0
    7.0423   -3.7305    0.0000 C   0  0  0  0  0  0  0  0  0  0  0  0
    5.6433   -4.2716    0.0000 C   0  0  0  0  0  0  0  0  0  0  0  0
    4.4752   -3.3306    0.0000 C   0  0  0  0  0  0  0  0  0  0  0  0
    4.7061   -1.8484    0.0000 C   0  0  0  0  0  0  0  0  0  0  0  0
   -3.1944    2.8359    0.0000 C   0  0  0  0  0  0  0  0  0  0  0  0
   -4.6922    2.7536    0.0000 C   0  0  0  0  0  0  0  0  0  0  0  0
  1  2  1  0
  2  3  1  0
  3  4  2  0
  4  5  1  0
  5  6  2  0
  6  7  1  0
  7  8  2  0
  8  9  1  0
  9 10  1  0
  6 11  1  0
 11 12  1  0
 12 13  1  0
 13 14  1  0
 14 15  1  0
 15 16  1  0
 16 17  1  0
 17 18  1  0
 18 19  2  0
 19 20  1  0
 20 21  1  0
 21 22  1  0
 22 23  1  0
 19 24  1  0
 24 25  2  0
 25 26  1  0
 26 27  2  0
 27 28  1  0
 28 29  2  0
 12 30  1  0
 30 31  1  0
  8  3  1  0
 29 17  1  0
 31  5  1  0
 29 24  1  0
M  END
>  <Ki>  (205) 
28.5

>  <database>  (205) 
SRSLDB

$$$$

     RDKit          2D

 27 30  0  0  0  0  0  0  0  0999 V2000
    4.9017   -3.9786    0.0000 O   0  0  0  0  0  0  0  0  0  0  0  0
    5.2146   -2.5116    0.0000 C   0  0  0  0  0  0  0  0  0  0  0  0
    6.5853   -1.9024    0.0000 S   0  0  0  0  0  0  0  0  0  0  0  0
    6.4296   -0.4105    0.0000 C   0  0  0  0  0  0  0  0  0  0  0  0
    7.4341    0.7034    0.0000 C   0  0  0  0  0  0  0  0  0  0  0  0
    6.9716    2.1304    0.0000 C   0  0  0  0  0  0  0  0  0  0  0  0
    7.9761    3.2444    0.0000 F   0  0  0  0  0  0  0  0  0  0  0  0
    5.5046    2.4433    0.0000 C   0  0  0  0  0  0  0  0  0  0  0  0
    4.5001    1.3293    0.0000 C   0  0  0  0  0  0  0  0  0  0  0  0
    4.9626   -0.0976    0.0000 C   0  0  0  0  0  0  0  0  0  0  0  0
    4.2117   -1.3961    0.0000 N   0  0  0  0  0  0  0  0  0  0  0  0
    2.7198   -1.5519    0.0000 C   0  0  0  0  0  0  0  0  0  0  0  0
    1.8390   -0.3377    0.0000 C   0  0  0  0  0  0  0  0  0  0  0  0
    0.3471   -0.4934    0.0000 C   0  0  0  0  0  0  0  0  0  0  0  0
   -0.5337    0.7207    0.0000 C   0  0  0  0  0  0  0  0  0  0  0  0
   -2.0256    0.5650    0.0000 N   0  0  0  0  0  0  0  0  0  0  0  0
   -2.9064    1.7792    0.0000 C   0  0  0  0  0  0  0  0  0  0  0  0
   -4.3983    1.6234    0.0000 C   0  0  0  0  0  0  0  0  0  0  0  0
   -5.0094    0.2536    0.0000 N   0  0  0  0  0  0  0  0  0  0  0  0
   -6.5013    0.0978    0.0000 C   0  0  0  0  0  0  0  0  0  0  0  0
   -7.3821    1.3120    0.0000 C   0  0  0  0  0  0  0  0  0  0  0  0
   -8.8740    1.1563    0.0000 C   0  0  0  0  0  0  0  0  0  0  0  0
   -9.4851   -0.2136    0.0000 C   0  0  0  0  0  0  0  0  0  0  0  0
   -8.6043   -1.4278    0.0000 C   0  0  0  0  0  0  0  0  0  0  0  0
   -7.1124   -1.2720    0.0000 C   0  0  0  0  0  0  0  0  0  0  0  0
   -4.1286   -0.9606    0.0000 C   0  0  0  0  0  0  0  0  0  0  0  0
   -2.6367   -0.8049    0.0000 C   0  0  0  0  0  0  0  0  0  0  0  0
  1  2  2  0
  2  3  1  0
  3  4  1  0
  4  5  2  0
  5  6  1  0
  6  7  1  0
  6  8  2  0
  8  9  1  0
  9 10  2  0
 10 11  1  0
 11 12  1  0
 12 13  1  0
 13 14  1  0
 14 15  1  0
 15 16  1  0
 16 17  1  0
 17 18  1  0
 18 19  1  0
 19 20  1  0
 20 21  1  0
 21 22  1  0
 22 23  1  0
 23 24  1  0
 24 25  1  0
 19 26  1  0
 26 27  1  0
 11  2  1  0
 27 16  1  0
 10  4  1  0
 25 20  1  0
M  END
>  <Ki>  (206) 
0.22

>  <database>  (206) 
SRSLDB

$$$$

     RDKit          2D

 27 30  0  0  0  0  0  0  0  0999 V2000
    0.1527    5.2122    0.0000 C   0  0  0  0  0  0  0  0  0  0  0  0
   -0.2317    3.7623    0.0000 C   0  0  0  0  0  0  0  0  0  0  0  0
   -1.6796    3.3703    0.0000 C   0  0  0  0  0  0  0  0  0  0  0  0
   -2.0640    1.9204    0.0000 C   0  0  0  0  0  0  0  0  0  0  0  0
   -3.5119    1.5284    0.0000 C   0  0  0  0  0  0  0  0  0  0  0  0
   -3.8963    0.0785    0.0000 N   0  0  0  0  0  0  0  0  0  0  0  0
   -5.2953   -0.4627    0.0000 C   0  0  0  0  0  0  0  0  0  0  0  0
   -6.5554    0.3510    0.0000 S   0  0  0  0  0  0  0  0  0  0  0  0
   -5.2129   -1.9604    0.0000 S   0  0  0  0  0  0  0  0  0  0  0  0
   -3.7630   -2.3449    0.0000 C   0  0  0  0  0  0  0  0  0  0  0  0
   -3.0785   -3.6796    0.0000 C   0  0  0  0  0  0  0  0  0  0  0  0
   -1.5804   -3.7542    0.0000 C   0  0  0  0  0  0  0  0  0  0  0  0
   -0.7667   -2.4941    0.0000 C   0  0  0  0  0  0  0  0  0  0  0  0
   -1.4512   -1.1593    0.0000 C   0  0  0  0  0  0  0  0  0  0  0  0
   -2.9493   -1.0847    0.0000 C   0  0  0  0  0  0  0  0  0  0  0  0
    0.8317    2.7044    0.0000 N   0  0  0  0  0  0  0  0  0  0  0  0
    0.4473    1.2545    0.0000 C   0  0  0  0  0  0  0  0  0  0  0  0
    1.5107    0.1967    0.0000 C   0  0  0  0  0  0  0  0  0  0  0  0
    2.9586    0.5887    0.0000 N   0  0  0  0  0  0  0  0  0  0  0  0
    4.0220   -0.4692    0.0000 C   0  0  0  0  0  0  0  0  0  0  0  0
    3.6376   -1.9191    0.0000 C   0  0  0  0  0  0  0  0  0  0  0  0
    4.7010   -2.9770    0.0000 C   0  0  0  0  0  0  0  0  0  0  0  0
    6.1488   -2.5850    0.0000 C   0  0  0  0  0  0  0  0  0  0  0  0
    6.5333   -1.1351    0.0000 C   0  0  0  0  0  0  0  0  0  0  0  0
    5.4699   -0.0772    0.0000 C   0  0  0  0  0  0  0  0  0  0  0  0
    3.3430    2.0386    0.0000 C   0  0  0  0  0  0  0  0  0  0  0  0
    2.2796    3.0965    0.0000 C   0  0  0  0  0  0  0  0  0  0  0  0
  1  2  1  0
  2  3  1  0
  3  4  1  0
  4  5  1  0
  5  6  1  0
  6  7  1  0
  7  8  2  0
  7  9  1  0
  9 10  1  0
 10 11  2  0
 11 12  1  0
 12 13  2  0
 13 14  1  0
 14 15  2  0
  2 16  1  0
 16 17  1  0
 17 18  1  0
 18 19  1  0
 19 20  1  0
 20 21  1  0
 21 22  1  0
 22 23  1  0
 23 24  1  0
 24 25  1  0
 19 26  1  0
 26 27  1  0
 15  6  1  0
 27 16  1  0
 15 10  1  0
 25 20  1  0
M  END
>  <Ki>  (207) 
0.99

>  <database>  (207) 
SRSLDB

$$$$

     RDKit          2D

 36 40  0  0  0  0  0  0  0  0999 V2000
  -13.8652    2.3353    0.0000 F   0  0  0  0  0  0  0  0  0  0  0  0
  -13.2062    0.9878    0.0000 C   0  0  0  0  0  0  0  0  0  0  0  0
  -11.7097    0.8848    0.0000 C   0  0  0  0  0  0  0  0  0  0  0  0
  -11.0507   -0.4627    0.0000 O   0  0  0  0  0  0  0  0  0  0  0  0
   -9.5543   -0.5658    0.0000 C   0  0  0  0  0  0  0  0  0  0  0  0
   -8.7168    0.6787    0.0000 C   0  0  0  0  0  0  0  0  0  0  0  0
   -7.2204    0.5757    0.0000 C   0  0  0  0  0  0  0  0  0  0  0  0
   -6.5614   -0.7718    0.0000 C   0  0  0  0  0  0  0  0  0  0  0  0
   -5.0649   -0.8748    0.0000 N   0  0  0  0  0  0  0  0  0  0  0  0
   -4.4059   -2.2223    0.0000 C   0  0  0  0  0  0  0  0  0  0  0  0
   -2.9094   -2.3254    0.0000 C   0  0  0  0  0  0  0  0  0  0  0  0
   -2.0720   -1.0809    0.0000 N   0  0  0  0  0  0  0  0  0  0  0  0
   -0.5755   -1.1839    0.0000 C   0  0  0  0  0  0  0  0  0  0  0  0
    0.2619    0.0605    0.0000 C   0  0  0  0  0  0  0  0  0  0  0  0
    1.7584   -0.0425    0.0000 C   0  0  0  0  0  0  0  0  0  0  0  0
    2.5958    1.2019    0.0000 C   0  0  0  0  0  0  0  0  0  0  0  0
    4.0923    1.0989    0.0000 C   0  0  0  0  0  0  0  0  0  0  0  0
    4.8885   -0.1723    0.0000 C   0  0  0  0  0  0  0  0  0  0  0  0
    6.3436    0.1921    0.0000 N   0  0  0  0  0  0  0  0  0  0  0  0
    7.4937   -0.7708    0.0000 C   0  0  0  0  0  0  0  0  0  0  0  0
    7.2348   -2.2483    0.0000 C   0  0  0  0  0  0  0  0  0  0  0  0
    8.3849   -3.2113    0.0000 C   0  0  0  0  0  0  0  0  0  0  0  0
    9.7939   -2.6967    0.0000 C   0  0  0  0  0  0  0  0  0  0  0  0
   10.9440   -3.6597    0.0000 F   0  0  0  0  0  0  0  0  0  0  0  0
   10.0528   -1.2192    0.0000 C   0  0  0  0  0  0  0  0  0  0  0  0
    8.9027   -0.2563    0.0000 C   0  0  0  0  0  0  0  0  0  0  0  0
    6.4466    1.6886    0.0000 C   0  0  0  0  0  0  0  0  0  0  0  0
    7.6277    2.6133    0.0000 C   0  0  0  0  0  0  0  0  0  0  0  0
    7.4173    4.0985    0.0000 C   0  0  0  0  0  0  0  0  0  0  0  0
    6.0259    4.6589    0.0000 C   0  0  0  0  0  0  0  0  0  0  0  0
    4.8449    3.7342    0.0000 C   0  0  0  0  0  0  0  0  0  0  0  0
    5.0552    2.2490    0.0000 C   0  0  0  0  0  0  0  0  0  0  0  0
   -2.7310    0.2666    0.0000 C   0  0  0  0  0  0  0  0  0  0  0  0
   -4.2274    0.3696    0.0000 C   0  0  0  0  0  0  0  0  0  0  0  0
   -7.3988   -2.0163    0.0000 C   0  0  0  0  0  0  0  0  0  0  0  0
   -8.8953   -1.9132    0.0000 C   0  0  0  0  0  0  0  0  0  0  0  0
  1  2  1  0
  2  3  1  0
  3  4  1  0
  4  5  1  0
  5  6  2  0
  6  7  1  0
  7  8  2  0
  8  9  1  0
  9 10  1  0
 10 11  1  0
 11 12  1  0
 12 13  1  0
 13 14  1  0
 14 15  1  0
 15 16  1  0
 16 17  1  0
 17 18  2  0
 18 19  1  0
 19 20  1  0
 20 21  2  0
 21 22  1  0
 22 23  2  0
 23 24  1  0
 23 25  1  0
 25 26  2  0
 19 27  1  0
 27 28  2  0
 28 29  1  0
 29 30  2  0
 30 31  1  0
 31 32  2  0
 12 33  1  0
 33 34  1  0
  8 35  1  0
 35 36  2  0
 36  5  1  0
 34  9  1  0
 32 17  1  0
 26 20  1  0
 32 27  1  0
M  END
>  <Ki>  (208) 
68.0

>  <database>  (208) 
SRSLDB

$$$$

     RDKit          2D

 23 26  0  0  0  0  0  0  0  0999 V2000
    1.9772   -1.2615    0.0000 C   0  0  0  0  0  0  0  0  0  0  0  0
    2.6906   -0.9057    0.0000 N   0  0  0  0  0  0  0  0  0  0  0  0
    3.8141   -1.8995    0.0000 C   0  0  0  0  0  0  0  0  0  0  0  0
    5.1065   -1.1381    0.0000 C   0  0  0  0  0  0  0  0  0  0  0  0
    4.7817    0.3263    0.0000 C   0  0  0  0  0  0  0  0  0  0  0  0
    3.2886    0.4699    0.0000 C   0  0  0  0  0  0  0  0  0  0  0  0
    1.7872    0.3121    0.0000 C   0  0  0  0  0  0  0  0  0  0  0  0
    1.3362   -1.1185    0.0000 C   0  0  0  0  0  0  0  0  0  0  0  0
   -0.1282   -1.4433    0.0000 O   0  0  0  0  0  0  0  0  0  0  0  0
   -1.1417   -0.3375    0.0000 C   0  0  0  0  0  0  0  0  0  0  0  0
   -2.6061   -0.6623    0.0000 C   0  0  0  0  0  0  0  0  0  0  0  0
   -3.6196    0.4436    0.0000 C   0  0  0  0  0  0  0  0  0  0  0  0
   -5.0840    0.1188    0.0000 C   0  0  0  0  0  0  0  0  0  0  0  0
   -5.5349   -1.3118    0.0000 C   0  0  0  0  0  0  0  0  0  0  0  0
   -4.5214   -2.4177    0.0000 C   0  0  0  0  0  0  0  0  0  0  0  0
   -3.0570   -2.0929    0.0000 C   0  0  0  0  0  0  0  0  0  0  0  0
   -0.6907    1.0931    0.0000 C   0  0  0  0  0  0  0  0  0  0  0  0
    0.7737    1.4179    0.0000 C   0  0  0  0  0  0  0  0  0  0  0  0
    1.2246    2.8485    0.0000 C   0  0  0  0  0  0  0  0  0  0  0  0
    0.2111    3.9544    0.0000 C   0  0  0  0  0  0  0  0  0  0  0  0
   -1.2533    3.6296    0.0000 C   0  0  0  0  0  0  0  0  0  0  0  0
   -1.7042    2.1990    0.0000 C   0  0  0  0  0  0  0  0  0  0  0  0
    2.3497   -2.2243    0.0000 C   0  0  0  0  0  0  0  0  0  0  0  0
  1  2  1  0
  2  3  1  0
  3  4  1  0
  4  5  1  0
  5  6  1  0
  6  7  1  0
  7  8  1  0
  8  9  1  0
  9 10  1  0
 10 11  1  0
 11 12  2  0
 12 13  1  0
 13 14  2  0
 14 15  1  0
 15 16  2  0
 10 17  1  0
 17 18  2  0
 18 19  1  0
 19 20  2  0
 20 21  1  0
 21 22  2  0
  8 23  1  0
  6  2  1  0
 16 11  1  0
 22 17  1  0
 23  3  1  0
M  END
>  <ChemBL_ID>  (209) 
CHEMBL1201203

>  <Ki>  (209) 
34.8

>  <database>  (209) 
SRSLDB

$$$$

     RDKit          2D

 21 23  0  0  0  0  0  0  0  0999 V2000
    2.1598   -3.2626    0.0000 C   0  0  0  0  0  0  0  0  0  0  0  0
    1.6829   -1.8405    0.0000 C   0  0  0  0  0  0  0  0  0  0  0  0
    0.2128   -1.5424    0.0000 C   0  0  0  0  0  0  0  0  0  0  0  0
   -0.7804   -2.6665    0.0000 O   0  0  0  0  0  0  0  0  0  0  0  0
   -0.2641   -0.1202    0.0000 O   0  0  0  0  0  0  0  0  0  0  0  0
   -1.7342    0.1778    0.0000 C   0  0  0  0  0  0  0  0  0  0  0  0
   -2.7274   -0.9463    0.0000 C   0  0  0  0  0  0  0  0  0  0  0  0
   -4.1974   -0.6482    0.0000 C   0  0  0  0  0  0  0  0  0  0  0  0
   -5.5035    0.0895    0.0000 C   0  0  0  0  0  0  0  0  0  0  0  0
   -5.2054    1.5596    0.0000 C   0  0  0  0  0  0  0  0  0  0  0  0
   -3.7152    1.7304    0.0000 C   0  0  0  0  0  0  0  0  0  0  0  0
   -2.2111    1.6000    0.0000 C   0  0  0  0  0  0  0  0  0  0  0  0
   -3.0922    0.3659    0.0000 N   0  0  0  0  0  0  0  0  0  0  0  0
   -2.2958    0.4013    0.0000 C   0  0  0  0  0  0  0  0  0  0  0  0
    2.6761   -0.7164    0.0000 C   0  0  0  0  0  0  0  0  0  0  0  0
    4.1462   -1.0144    0.0000 C   0  0  0  0  0  0  0  0  0  0  0  0
    5.1393    0.1097    0.0000 C   0  0  0  0  0  0  0  0  0  0  0  0
    4.6624    1.5318    0.0000 C   0  0  0  0  0  0  0  0  0  0  0  0
    5.6556    2.6559    0.0000 Cl  0  0  0  0  0  0  0  0  0  0  0  0
    3.1923    1.8299    0.0000 C   0  0  0  0  0  0  0  0  0  0  0  0
    2.1992    0.7058    0.0000 C   0  0  0  0  0  0  0  0  0  0  0  0
  1  2  1  0
  2  3  1  0
  3  4  2  0
  3  5  1  0
  5  6  1  0
  6  7  1  0
  7  8  1  0
  8  9  1  0
  9 10  1  0
 10 11  1  0
 11 12  1  0
 11 13  1  0
 13 14  1  0
  2 15  1  0
 15 16  2  0
 16 17  1  0
 17 18  2  0
 18 19  1  0
 18 20  1  0
 20 21  2  0
 12  6  1  0
 21 15  1  0
 13  8  1  0
M  END
>  <ChemBL_ID>  (210) 
CHEMBL1199377

>  <Ki>  (210) 
329.0

>  <database>  (210) 
SRSLDB

$$$$

     RDKit          2D

 28 31  0  0  0  0  0  0  0  0999 V2000
   -5.1964   -3.8971    0.0000 C   0  0  0  0  0  0  0  0  0  0  0  0
   -4.4464   -2.5981    0.0000 O   0  0  0  0  0  0  0  0  0  0  0  0
   -5.1964   -1.2990    0.0000 C   0  0  0  0  0  0  0  0  0  0  0  0
   -6.6964   -1.2990    0.0000 C   0  0  0  0  0  0  0  0  0  0  0  0
   -7.4464    0.0000    0.0000 C   0  0  0  0  0  0  0  0  0  0  0  0
   -6.6964    1.2990    0.0000 C   0  0  0  0  0  0  0  0  0  0  0  0
   -5.1964    1.2990    0.0000 C   0  0  0  0  0  0  0  0  0  0  0  0
   -4.4464    2.5981    0.0000 O   0  0  0  0  0  0  0  0  0  0  0  0
   -5.1964    3.8971    0.0000 C   0  0  0  0  0  0  0  0  0  0  0  0
   -4.4464    0.0000    0.0000 C   0  0  0  0  0  0  0  0  0  0  0  0
   -2.9464    0.0000    0.0000 C   0  0  0  0  0  0  0  0  0  0  0  0
   -2.1964   -1.2990    0.0000 C   0  0  0  0  0  0  0  0  0  0  0  0
   -0.6964   -1.2990    0.0000 C   0  0  0  0  0  0  0  0  0  0  0  0
    0.0536   -0.0000    0.0000 C   0  0  0  0  0  0  0  0  0  0  0  0
    1.5536   -0.0000    0.0000 N   0  0  0  0  0  0  0  0  0  0  0  0
    2.3036   -1.2990    0.0000 C   0  0  0  0  0  0  0  0  0  0  0  0
    3.8036   -1.2990    0.0000 C   0  0  0  0  0  0  0  0  0  0  0  0
    4.5536   -0.0000    0.0000 N   0  0  0  0  0  0  0  0  0  0  0  0
    6.0536    0.0000    0.0000 C   0  0  0  0  0  0  0  0  0  0  0  0
    6.8036   -1.2990    0.0000 C   0  0  0  0  0  0  0  0  0  0  0  0
    8.3036   -1.2990    0.0000 C   0  0  0  0  0  0  0  0  0  0  0  0
    9.0536    0.0000    0.0000 C   0  0  0  0  0  0  0  0  0  0  0  0
    8.3036    1.2990    0.0000 C   0  0  0  0  0  0  0  0  0  0  0  0
    6.8036    1.2990    0.0000 N   0  0  0  0  0  0  0  0  0  0  0  0
    3.8036    1.2990    0.0000 C   0  0  0  0  0  0  0  0  0  0  0  0
    2.3036    1.2990    0.0000 C   0  0  0  0  0  0  0  0  0  0  0  0
   -0.6964    1.2990    0.0000 C   0  0  0  0  0  0  0  0  0  0  0  0
   -2.1964    1.2990    0.0000 C   0  0  0  0  0  0  0  0  0  0  0  0
  1  2  1  0
  2  3  1  0
  3  4  2  0
  4  5  1  0
  5  6  2  0
  6  7  1  0
  7  8  1  0
  8  9  1  0
  7 10  2  0
 11 10  1  6
 11 12  1  0
 12 13  1  0
 13 14  1  0
 14 15  1  6
 15 16  1  0
 16 17  1  0
 17 18  1  0
 18 19  1  0
 19 20  2  0
 20 21  1  0
 21 22  2  0
 22 23  1  0
 23 24  2  0
 18 25  1  0
 25 26  1  0
 14 27  1  0
 27 28  1  0
 10  3  1  0
 28 11  1  0
 26 15  1  0
 24 19  1  0
M  END
>  <ChemBL_ID>  (211) 
CHEMBL457722

>  <Ki>  (211) 
687.0

>  <database>  (211) 
SRSLDB

$$$$

     RDKit          2D

 28 31  0  0  0  0  0  0  0  0999 V2000
   -5.1964   -3.8971    0.0000 C   0  0  0  0  0  0  0  0  0  0  0  0
   -4.4464   -2.5981    0.0000 O   0  0  0  0  0  0  0  0  0  0  0  0
   -5.1964   -1.2990    0.0000 C   0  0  0  0  0  0  0  0  0  0  0  0
   -6.6964   -1.2990    0.0000 C   0  0  0  0  0  0  0  0  0  0  0  0
   -7.4464    0.0000    0.0000 C   0  0  0  0  0  0  0  0  0  0  0  0
   -6.6964    1.2990    0.0000 C   0  0  0  0  0  0  0  0  0  0  0  0
   -5.1964    1.2990    0.0000 C   0  0  0  0  0  0  0  0  0  0  0  0
   -4.4464    2.5981    0.0000 O   0  0  0  0  0  0  0  0  0  0  0  0
   -5.1964    3.8971    0.0000 C   0  0  0  0  0  0  0  0  0  0  0  0
   -4.4464    0.0000    0.0000 C   0  0  0  0  0  0  0  0  0  0  0  0
   -2.9464    0.0000    0.0000 C   0  0  0  0  0  0  0  0  0  0  0  0
   -2.1964   -1.2990    0.0000 C   0  0  0  0  0  0  0  0  0  0  0  0
   -0.6964   -1.2990    0.0000 C   0  0  0  0  0  0  0  0  0  0  0  0
    0.0536   -0.0000    0.0000 C   0  0  0  0  0  0  0  0  0  0  0  0
    1.5536   -0.0000    0.0000 N   0  0  0  0  0  0  0  0  0  0  0  0
    2.3036   -1.2990    0.0000 C   0  0  0  0  0  0  0  0  0  0  0  0
    3.8036   -1.2990    0.0000 C   0  0  0  0  0  0  0  0  0  0  0  0
    4.5536   -0.0000    0.0000 N   0  0  0  0  0  0  0  0  0  0  0  0
    6.0536    0.0000    0.0000 C   0  0  0  0  0  0  0  0  0  0  0  0
    6.8036   -1.2990    0.0000 C   0  0  0  0  0  0  0  0  0  0  0  0
    8.3036   -1.2990    0.0000 C   0  0  0  0  0  0  0  0  0  0  0  0
    9.0536    0.0000    0.0000 C   0  0  0  0  0  0  0  0  0  0  0  0
    8.3036    1.2990    0.0000 C   0  0  0  0  0  0  0  0  0  0  0  0
    6.8036    1.2990    0.0000 N   0  0  0  0  0  0  0  0  0  0  0  0
    3.8036    1.2990    0.0000 C   0  0  0  0  0  0  0  0  0  0  0  0
    2.3036    1.2990    0.0000 C   0  0  0  0  0  0  0  0  0  0  0  0
   -0.6964    1.2990    0.0000 C   0  0  0  0  0  0  0  0  0  0  0  0
   -2.1964    1.2990    0.0000 C   0  0  0  0  0  0  0  0  0  0  0  0
  1  2  1  0
  2  3  1  0
  3  4  2  0
  4  5  1  0
  5  6  2  0
  6  7  1  0
  7  8  1  0
  8  9  1  0
  7 10  2  0
 11 10  1  6
 11 12  1  0
 12 13  1  0
 13 14  1  0
 14 15  1  1
 15 16  1  0
 16 17  1  0
 17 18  1  0
 18 19  1  0
 19 20  2  0
 20 21  1  0
 21 22  2  0
 22 23  1  0
 23 24  2  0
 18 25  1  0
 25 26  1  0
 14 27  1  0
 27 28  1  0
 10  3  1  0
 28 11  1  0
 26 15  1  0
 24 19  1  0
M  END
>  <ChemBL_ID>  (212) 
CHEMBL513936

>  <Ki>  (212) 
25.0

>  <database>  (212) 
SRSLDB

$$$$

     RDKit          2D

 28 31  0  0  0  0  0  0  0  0999 V2000
   -9.9555    1.2876    0.0000 C   0  0  0  0  0  0  0  0  0  0  0  0
   -8.8189    0.3087    0.0000 O   0  0  0  0  0  0  0  0  0  0  0  0
   -7.4029    0.8036    0.0000 C   0  0  0  0  0  0  0  0  0  0  0  0
   -7.1235    2.2774    0.0000 C   0  0  0  0  0  0  0  0  0  0  0  0
   -5.7075    2.7723    0.0000 C   0  0  0  0  0  0  0  0  0  0  0  0
   -4.5709    1.7935    0.0000 C   0  0  0  0  0  0  0  0  0  0  0  0
   -4.8503    0.3197    0.0000 C   0  0  0  0  0  0  0  0  0  0  0  0
   -6.2663   -0.1752    0.0000 C   0  0  0  0  0  0  0  0  0  0  0  0
   -6.5457   -1.6489    0.0000 C   0  0  0  0  0  0  0  0  0  0  0  0
   -5.4091   -2.6278    0.0000 C   0  0  0  0  0  0  0  0  0  0  0  0
   -3.9931   -2.1329    0.0000 C   0  0  0  0  0  0  0  0  0  0  0  0
   -3.7137   -0.6591    0.0000 C   0  0  0  0  0  0  0  0  0  0  0  0
   -2.2977   -0.1642    0.0000 C   0  0  0  0  0  0  0  0  0  0  0  0
   -1.1611   -1.1430    0.0000 C   0  0  0  0  0  0  0  0  0  0  0  0
    0.2549   -0.6481    0.0000 C   0  0  0  0  0  0  0  0  0  0  0  0
    1.3915   -1.6269    0.0000 C   0  0  0  0  0  0  0  0  0  0  0  0
    2.8075   -1.1320    0.0000 N   0  0  0  0  0  0  0  0  0  0  0  0
    3.9441   -2.1109    0.0000 C   0  0  0  0  0  0  0  0  0  0  0  0
    5.3601   -1.6159    0.0000 C   0  0  0  0  0  0  0  0  0  0  0  0
    5.6395   -0.1422    0.0000 N   0  0  0  0  0  0  0  0  0  0  0  0
    7.0555    0.3527    0.0000 C   0  0  0  0  0  0  0  0  0  0  0  0
    8.1921   -0.6261    0.0000 N   0  0  0  0  0  0  0  0  0  0  0  0
    9.6081   -0.1312    0.0000 C   0  0  0  0  0  0  0  0  0  0  0  0
    9.8875    1.3426    0.0000 C   0  0  0  0  0  0  0  0  0  0  0  0
    8.7509    2.3214    0.0000 C   0  0  0  0  0  0  0  0  0  0  0  0
    7.3349    1.8265    0.0000 C   0  0  0  0  0  0  0  0  0  0  0  0
    4.5029    0.8366    0.0000 C   0  0  0  0  0  0  0  0  0  0  0  0
    3.0869    0.3417    0.0000 C   0  0  0  0  0  0  0  0  0  0  0  0
  1  2  1  0
  2  3  1  0
  3  4  2  0
  4  5  1  0
  5  6  2  0
  6  7  1  0
  7  8  2  0
  8  9  1  0
  9 10  1  0
 10 11  1  0
 11 12  1  0
 12 13  1  0
 13 14  1  0
 14 15  1  0
 15 16  1  0
 16 17  1  0
 17 18  1  0
 18 19  1  0
 19 20  1  0
 20 21  1  0
 21 22  2  0
 22 23  1  0
 23 24  1  0
 24 25  1  0
 25 26  1  0
 20 27  1  0
 27 28  1  0
  8  3  1  0
 28 17  1  0
 12  7  1  0
 26 21  1  0
M  END
>  <ChemBL_ID>  (213) 
CHEMBL50239

>  <Ki>  (213) 
46.5

>  <database>  (213) 
SRSLDB

$$$$

     RDKit          2D

 33 36  0  0  0  0  0  0  0  0999 V2000
   -7.2558   -2.6235    0.0000 C   0  0  0  0  0  0  0  0  0  0  0  0
   -5.9139   -3.2939    0.0000 C   0  0  0  0  0  0  0  0  0  0  0  0
   -4.5721   -3.9643    0.0000 C   0  0  0  0  0  0  0  0  0  0  0  0
   -3.3206   -3.1375    0.0000 N   0  0  0  0  0  0  0  0  0  0  0  0
   -1.9787   -3.8079    0.0000 C   0  0  0  0  0  0  0  0  0  0  0  0
   -0.7272   -2.9810    0.0000 C   0  0  0  0  0  0  0  0  0  0  0  0
    0.6146   -3.6514    0.0000 C   0  0  0  0  0  0  0  0  0  0  0  0
    1.8661   -2.8246    0.0000 N   0  0  0  0  0  0  0  0  0  0  0  0
    3.2080   -3.4950    0.0000 C   0  0  0  0  0  0  0  0  0  0  0  0
    4.4595   -2.6681    0.0000 C   0  0  0  0  0  0  0  0  0  0  0  0
    4.3692   -1.1709    0.0000 N   0  0  0  0  0  0  0  0  0  0  0  0
    5.6207   -0.3440    0.0000 C   0  0  0  0  0  0  0  0  0  0  0  0
    6.9626   -1.0144    0.0000 C   0  0  0  0  0  0  0  0  0  0  0  0
    8.2141   -0.1876    0.0000 C   0  0  0  0  0  0  0  0  0  0  0  0
    8.1238    1.3097    0.0000 C   0  0  0  0  0  0  0  0  0  0  0  0
    6.7819    1.9801    0.0000 C   0  0  0  0  0  0  0  0  0  0  0  0
    5.5304    1.1533    0.0000 C   0  0  0  0  0  0  0  0  0  0  0  0
    3.0274   -0.5004    0.0000 C   0  0  0  0  0  0  0  0  0  0  0  0
    1.7758   -1.3273    0.0000 C   0  0  0  0  0  0  0  0  0  0  0  0
   -3.4109   -1.6402    0.0000 C   0  0  0  0  0  0  0  0  0  0  0  0
   -2.1594   -0.8133    0.0000 C   0  0  0  0  0  0  0  0  0  0  0  0
   -2.2497    0.6840    0.0000 C   0  0  0  0  0  0  0  0  0  0  0  0
   -3.5915    1.3544    0.0000 C   0  0  0  0  0  0  0  0  0  0  0  0
   -3.6819    2.8517    0.0000 C   0  0  0  0  0  0  0  0  0  0  0  0
   -5.0237    3.5221    0.0000 O   0  0  0  0  0  0  0  0  0  0  0  0
   -2.4303    3.6785    0.0000 C   0  0  0  0  0  0  0  0  0  0  0  0
   -1.0885    3.0081    0.0000 C   0  0  0  0  0  0  0  0  0  0  0  0
    0.1630    3.8350    0.0000 C   0  0  0  0  0  0  0  0  0  0  0  0
    0.0727    5.3322    0.0000 C   0  0  0  0  0  0  0  0  0  0  0  0
   -1.2691    6.0027    0.0000 C   0  0  0  0  0  0  0  0  0  0  0  0
   -2.5207    5.1758    0.0000 C   0  0  0  0  0  0  0  0  0  0  0  0
   -4.8431    0.5275    0.0000 C   0  0  0  0  0  0  0  0  0  0  0  0
   -4.7527   -0.9698    0.0000 C   0  0  0  0  0  0  0  0  0  0  0  0
  1  2  3  0
  2  3  1  0
  3  4  1  0
  4  5  1  0
  5  6  1  0
  6  7  1  0
  7  8  1  0
  8  9  1  0
  9 10  1  0
 10 11  1  0
 11 12  1  0
 12 13  1  0
 13 14  1  0
 14 15  1  0
 15 16  1  0
 16 17  1  0
 11 18  1  0
 18 19  1  0
  4 20  1  0
 20 21  2  0
 21 22  1  0
 22 23  2  0
 23 24  1  0
 24 25  2  0
 24 26  1  0
 26 27  2  0
 27 28  1  0
 28 29  2  0
 29 30  1  0
 30 31  2  0
 23 32  1  0
 32 33  2  0
 19  8  1  0
 33 20  1  0
 17 12  1  0
 31 26  1  0
M  END
>  <Ki>  (214) 
77.0

>  <database>  (214) 
SRSLDB

$$$$

     RDKit          2D

 31 36  0  0  0  0  0  0  0  0999 V2000
    9.1145   -1.2744    0.0000 C   0  0  0  0  0  0  0  0  0  0  0  0
    7.9100   -2.1684    0.0000 C   0  0  0  0  0  0  0  0  0  0  0  0
    6.5335   -1.5722    0.0000 C   0  0  0  0  0  0  0  0  0  0  0  0
    6.3616   -0.0821    0.0000 C   0  0  0  0  0  0  0  0  0  0  0  0
    7.5662    0.8119    0.0000 C   0  0  0  0  0  0  0  0  0  0  0  0
    8.9426    0.2157    0.0000 C   0  0  0  0  0  0  0  0  0  0  0  0
    7.0882    2.2337    0.0000 C   0  0  0  0  0  0  0  0  0  0  0  0
    5.5883    2.2185    0.0000 O   0  0  0  0  0  0  0  0  0  0  0  0
    5.1392    0.7873    0.0000 C   0  0  0  0  0  0  0  0  0  0  0  0
    4.0144    1.7796    0.0000 C   0  0  0  0  0  0  0  0  0  0  0  0
    2.5926    1.3017    0.0000 C   0  0  0  0  0  0  0  0  0  0  0  0
    2.2956   -0.1686    0.0000 N   0  0  0  0  0  0  0  0  0  0  0  0
    0.8738   -0.6466    0.0000 C   0  0  0  0  0  0  0  0  0  0  0  0
   -0.2510    0.3457    0.0000 C   0  0  0  0  0  0  0  0  0  0  0  0
   -1.6729   -0.1322    0.0000 C   0  0  0  0  0  0  0  0  0  0  0  0
   -2.7977    0.8601    0.0000 C   0  0  0  0  0  0  0  0  0  0  0  0
   -4.2195    0.3822    0.0000 N   0  0  0  0  0  0  0  0  0  0  0  0
   -5.4419    1.2515    0.0000 C   0  0  0  0  0  0  0  0  0  0  0  0
   -5.6138    2.7416    0.0000 C   0  0  0  0  0  0  0  0  0  0  0  0
   -6.9902    3.3378    0.0000 C   0  0  0  0  0  0  0  0  0  0  0  0
   -8.1948    2.4439    0.0000 C   0  0  0  0  0  0  0  0  0  0  0  0
   -8.0229    0.9537    0.0000 C   0  0  0  0  0  0  0  0  0  0  0  0
   -6.6464    0.3576    0.0000 C   0  0  0  0  0  0  0  0  0  0  0  0
   -6.1685   -1.0643    0.0000 C   0  0  0  0  0  0  0  0  0  0  0  0
   -6.9053   -2.3708    0.0000 C   0  0  0  0  0  0  0  0  0  0  0  0
   -6.1421   -3.6622    0.0000 C   0  0  0  0  0  0  0  0  0  0  0  0
   -4.6422   -3.6470    0.0000 C   0  0  0  0  0  0  0  0  0  0  0  0
   -3.9054   -2.3404    0.0000 C   0  0  0  0  0  0  0  0  0  0  0  0
   -4.6685   -1.0491    0.0000 C   0  0  0  0  0  0  0  0  0  0  0  0
    3.4204   -1.1610    0.0000 C   0  0  0  0  0  0  0  0  0  0  0  0
    4.8423   -0.6830    0.0000 C   0  0  0  0  0  0  0  0  0  0  0  0
  1  2  2  0
  2  3  1  0
  3  4  2  0
  4  5  1  0
  5  6  2  0
  5  7  1  0
  7  8  1  0
  8  9  1  0
  9 10  1  0
 10 11  1  0
 11 12  1  0
 12 13  1  0
 13 14  1  0
 14 15  1  0
 15 16  1  0
 16 17  1  0
 17 18  1  0
 18 19  2  0
 19 20  1  0
 20 21  2  0
 21 22  1  0
 22 23  2  0
 23 24  1  0
 24 25  2  0
 25 26  1  0
 26 27  2  0
 27 28  1  0
 28 29  2  0
 12 30  1  0
 30 31  1  0
  6  1  1  0
 31  9  1  0
  9  4  1  0
 29 17  1  0
 23 18  1  0
 29 24  1  0
M  END
>  <Ki>  (215) 
3.24

>  <database>  (215) 
SRSLDB

$$$$

     RDKit          2D

 38 41  0  0  0  0  0  0  0  0999 V2000
  -13.1748   -0.4586    0.0000 C   0  0  0  0  0  0  0  0  0  0  0  0
  -12.0829   -1.4870    0.0000 O   0  0  0  0  0  0  0  0  0  0  0  0
  -10.6463   -1.0556    0.0000 C   0  0  0  0  0  0  0  0  0  0  0  0
  -10.3016    0.4043    0.0000 C   0  0  0  0  0  0  0  0  0  0  0  0
   -8.8650    0.8357    0.0000 C   0  0  0  0  0  0  0  0  0  0  0  0
   -7.7730   -0.1927    0.0000 C   0  0  0  0  0  0  0  0  0  0  0  0
   -8.1177   -1.6526    0.0000 C   0  0  0  0  0  0  0  0  0  0  0  0
   -9.5543   -2.0840    0.0000 C   0  0  0  0  0  0  0  0  0  0  0  0
   -9.8990   -3.5439    0.0000 O   0  0  0  0  0  0  0  0  0  0  0  0
   -8.8070   -4.5723    0.0000 C   0  0  0  0  0  0  0  0  0  0  0  0
   -6.3364    0.2387    0.0000 C   0  0  0  0  0  0  0  0  0  0  0  0
   -5.9917    1.6986    0.0000 N   0  0  0  0  0  0  0  0  0  0  0  0
   -4.5551    2.1300    0.0000 C   0  0  0  0  0  0  0  0  0  0  0  0
   -3.4632    1.1016    0.0000 C   0  0  0  0  0  0  0  0  0  0  0  0
   -2.0266    1.5330    0.0000 C   0  0  0  0  0  0  0  0  0  0  0  0
   -0.9346    0.5046    0.0000 N   0  0  0  0  0  0  0  0  0  0  0  0
    0.5020    0.9360    0.0000 C   0  0  0  0  0  0  0  0  0  0  0  0
    0.8467    2.3959    0.0000 O   0  0  0  0  0  0  0  0  0  0  0  0
    1.5939   -0.0924    0.0000 C   0  0  0  0  0  0  0  0  0  0  0  0
    3.0306    0.3390    0.0000 C   0  0  0  0  0  0  0  0  0  0  0  0
    4.1225   -0.6894    0.0000 C   0  0  0  0  0  0  0  0  0  0  0  0
    5.5591   -0.2580    0.0000 C   0  0  0  0  0  0  0  0  0  0  0  0
    5.9038    1.2019    0.0000 C   0  0  0  0  0  0  0  0  0  0  0  0
    7.3404    1.6333    0.0000 C   0  0  0  0  0  0  0  0  0  0  0  0
    7.6851    3.0932    0.0000 O   0  0  0  0  0  0  0  0  0  0  0  0
    8.4323    0.6049    0.0000 C   0  0  0  0  0  0  0  0  0  0  0  0
    8.0877   -0.8550    0.0000 C   0  0  0  0  0  0  0  0  0  0  0  0
    9.1796   -1.8834    0.0000 C   0  0  0  0  0  0  0  0  0  0  0  0
   10.6162   -1.4520    0.0000 C   0  0  0  0  0  0  0  0  0  0  0  0
   11.7082   -2.4804    0.0000 N   0  0  0  0  0  4  0  0  0  0  0  0
   13.1448   -2.0489    0.0000 O   0  0  0  0  0  0  0  0  0  0  0  0
   11.3635   -3.9402    0.0000 O   0  0  0  0  0  1  0  0  0  0  0  0
   10.9609    0.0079    0.0000 C   0  0  0  0  0  0  0  0  0  0  0  0
    9.8690    1.0363    0.0000 C   0  0  0  0  0  0  0  0  0  0  0  0
    4.8118    2.2303    0.0000 C   0  0  0  0  0  0  0  0  0  0  0  0
    3.3752    1.7989    0.0000 C   0  0  0  0  0  0  0  0  0  0  0  0
   -7.0837    2.7270    0.0000 C   0  0  0  0  0  0  0  0  0  0  0  0
   -8.5203    2.2956    0.0000 C   0  0  0  0  0  0  0  0  0  0  0  0
  1  2  1  0
  2  3  1  0
  3  4  2  0
  4  5  1  0
  5  6  2  0
  6  7  1  0
  7  8  2  0
  8  9  1  0
  9 10  1  0
  6 11  1  0
 11 12  1  0
 12 13  1  0
 13 14  1  0
 14 15  1  0
 15 16  1  0
 16 17  1  0
 17 18  2  0
 17 19  1  0
 19 20  1  0
 20 21  2  0
 21 22  1  0
 22 23  2  0
 23 24  1  0
 24 25  2  0
 24 26  1  0
 26 27  2  0
 27 28  1  0
 28 29  2  0
 29 30  1  0
 30 31  2  0
 30 32  1  0
 29 33  1  0
 33 34  2  0
 23 35  1  0
 35 36  2  0
 12 37  1  0
 37 38  1  0
  8  3  1  0
 36 20  1  0
 38  5  1  0
 34 26  1  0
M  CHG  2  30   1  32  -1
M  END
>  <Ki>  (216) 
1202.0

>  <database>  (216) 
SRSLDB

$$$$

     RDKit          2D

 49 54  0  0  0  0  0  0  0  0999 V2000
  -19.0473    1.8161    0.0000 O   0  0  0  0  0  0  0  0  0  0  0  0
  -17.7214    2.5175    0.0000 N   0  0  0  0  0  4  0  0  0  0  0  0
  -17.6658    4.0164    0.0000 O   0  0  0  0  0  1  0  0  0  0  0  0
  -16.4510    1.7199    0.0000 C   0  0  0  0  0  0  0  0  0  0  0  0
  -15.1251    2.4212    0.0000 C   0  0  0  0  0  0  0  0  0  0  0  0
  -13.8547    1.6236    0.0000 C   0  0  0  0  0  0  0  0  0  0  0  0
  -13.9103    0.1246    0.0000 C   0  0  0  0  0  0  0  0  0  0  0  0
  -12.6399   -0.6730    0.0000 N   0  0  0  0  0  0  0  0  0  0  0  0
  -11.3140    0.0283    0.0000 C   0  0  0  0  0  0  0  0  0  0  0  0
  -10.0437   -0.7693    0.0000 C   0  0  0  0  0  0  0  0  0  0  0  0
   -8.7177   -0.0679    0.0000 C   0  0  0  0  0  0  0  0  0  0  0  0
   -7.4474   -0.8656    0.0000 C   0  0  0  0  0  0  0  0  0  0  0  0
   -6.1214   -0.1642    0.0000 C   0  0  0  0  0  0  0  0  0  0  0  0
   -4.8511   -0.9618    0.0000 C   0  0  0  0  0  0  0  0  0  0  0  0
   -3.5251   -0.2605    0.0000 C   0  0  0  0  0  0  0  0  0  0  0  0
   -2.2548   -1.0581    0.0000 C   0  0  0  0  0  0  0  0  0  0  0  0
   -0.9288   -0.3567    0.0000 C   0  0  0  0  0  0  0  0  0  0  0  0
    0.3415   -1.1544    0.0000 C   0  0  0  0  0  0  0  0  0  0  0  0
    1.6675   -0.4530    0.0000 O   0  0  0  0  0  0  0  0  0  0  0  0
    2.9378   -1.2506    0.0000 C   0  0  0  0  0  0  0  0  0  0  0  0
    2.8822   -2.7496    0.0000 C   0  0  0  0  0  0  0  0  0  0  0  0
    4.1526   -3.5472    0.0000 C   0  0  0  0  0  0  0  0  0  0  0  0
    5.4785   -2.8459    0.0000 C   0  0  0  0  0  0  0  0  0  0  0  0
    5.5341   -1.3469    0.0000 C   0  0  0  0  0  0  0  0  0  0  0  0
    4.2637   -0.5493    0.0000 C   0  0  0  0  0  0  0  0  0  0  0  0
    4.3193    0.9497    0.0000 C   0  0  0  0  0  0  0  0  0  0  0  0
    5.6453    1.6510    0.0000 C   0  0  0  0  0  0  0  0  0  0  0  0
    6.9156    0.8534    0.0000 C   0  0  0  0  0  0  0  0  0  0  0  0
    6.8600   -0.6456    0.0000 C   0  0  0  0  0  0  0  0  0  0  0  0
    8.1304   -1.4432    0.0000 C   0  0  0  0  0  0  0  0  0  0  0  0
    9.4563   -0.7418    0.0000 C   0  0  0  0  0  0  0  0  0  0  0  0
   10.7267   -1.5395    0.0000 C   0  0  0  0  0  0  0  0  0  0  0  0
   12.0526   -0.8381    0.0000 N   0  0  0  0  0  0  0  0  0  0  0  0
   13.3230   -1.6357    0.0000 C   0  0  0  0  0  0  0  0  0  0  0  0
   14.6489   -0.9344    0.0000 C   0  0  0  0  0  0  0  0  0  0  0  0
   14.7045    0.5646    0.0000 N   0  0  0  0  0  0  0  0  0  0  0  0
   16.0304    1.2659    0.0000 C   0  0  0  0  0  0  0  0  0  0  0  0
   17.3008    0.4683    0.0000 C   0  0  0  0  0  0  0  0  0  0  0  0
   18.6267    1.1697    0.0000 C   0  0  0  0  0  0  0  0  0  0  0  0
   18.6823    2.6686    0.0000 C   0  0  0  0  0  0  0  0  0  0  0  0
   17.4120    3.4663    0.0000 C   0  0  0  0  0  0  0  0  0  0  0  0
   16.0860    2.7649    0.0000 C   0  0  0  0  0  0  0  0  0  0  0  0
   13.4341    1.3622    0.0000 C   0  0  0  0  0  0  0  0  0  0  0  0
   12.1082    0.6609    0.0000 C   0  0  0  0  0  0  0  0  0  0  0  0
  -15.2362   -0.5767    0.0000 C   0  0  0  0  0  0  0  0  0  0  0  0
  -15.6023   -2.0314    0.0000 N   0  0  0  0  0  0  0  0  0  0  0  0
  -17.0988   -2.1328    0.0000 O   0  0  0  0  0  0  0  0  0  0  0  0
  -17.6577   -0.7408    0.0000 N   0  0  0  0  0  0  0  0  0  0  0  0
  -16.5066    0.2209    0.0000 C   0  0  0  0  0  0  0  0  0  0  0  0
  1  2  2  0
  2  3  1  0
  2  4  1  0
  4  5  2  0
  5  6  1  0
  6  7  2  0
  7  8  1  0
  8  9  1  0
  9 10  1  0
 10 11  1  0
 11 12  1  0
 12 13  1  0
 13 14  1  0
 14 15  1  0
 15 16  1  0
 16 17  1  0
 17 18  1  0
 18 19  1  0
 19 20  1  0
 20 21  2  0
 21 22  1  0
 22 23  2  0
 23 24  1  0
 24 25  2  0
 25 26  1  0
 26 27  1  0
 27 28  1  0
 28 29  1  0
 29 30  1  0
 30 31  1  0
 31 32  1  0
 32 33  1  0
 33 34  1  0
 34 35  1  0
 35 36  1  0
 36 37  1  0
 37 38  1  0
 38 39  1  0
 39 40  1  0
 40 41  1  0
 41 42  1  0
 36 43  1  0
 43 44  1  0
  7 45  1  0
 45 46  2  0
 46 47  1  0
 47 48  1  0
 48 49  2  0
 49  4  1  0
 25 20  1  0
 44 33  1  0
 49 45  1  0
 29 24  1  0
 42 37  1  0
M  CHG  2   2   1   3  -1
M  END
>  <ChemBL_ID>  (217) 
CHEMBL3259960

>  <Ki>  (217) 
31.2

>  <database>  (217) 
SRSLDB

$$$$

     RDKit          2D

 21 27  0  0  0  0  0  0  0  0999 V2000
    0.7347    2.7521    0.0000 O   0  0  0  0  0  0  0  0  0  0  0  0
    0.9618    1.2694    0.0000 C   0  0  0  0  0  0  0  0  0  0  0  0
    2.3018    1.9436    0.0000 C   0  0  0  0  0  0  0  0  0  0  0  0
    5.2579    0.5667    0.0000 C   0  0  0  0  0  0  0  0  0  0  0  0
    5.9321   -0.7733    0.0000 C   0  0  0  0  0  0  0  0  0  0  0  0
    4.8661   -1.8285    0.0000 C   0  0  0  0  0  0  0  0  0  0  0  0
    3.5331   -1.1408    0.0000 C   0  0  0  0  0  0  0  0  0  0  0  0
    3.7752    0.3395    0.0000 C   0  0  0  0  0  0  0  0  0  0  0  0
    2.2949    0.5817    0.0000 C   0  0  0  0  0  0  0  0  0  0  0  0
    2.0527   -0.8987    0.0000 C   0  0  0  0  0  0  0  0  0  0  0  0
    0.5700   -1.1258    0.0000 C   0  0  0  0  0  0  0  0  0  0  0  0
    4.9130   -0.3293    0.0000 C   0  0  0  0  0  0  0  0  0  0  0  0
   -0.1042    0.2141    0.0000 N   0  0  0  0  0  0  0  0  0  0  0  0
   -1.5845    0.4563    0.0000 C   0  0  0  0  0  0  0  0  0  0  0  0
   -2.5344   -0.7047    0.0000 C   0  0  0  0  0  0  0  0  0  0  0  0
   -4.0147   -0.4625    0.0000 C   0  0  0  0  0  0  0  0  0  0  0  0
   -4.5452    0.9405    0.0000 C   0  0  0  0  0  0  0  0  0  0  0  0
   -6.0255    1.1827    0.0000 C   0  0  0  0  0  0  0  0  0  0  0  0
   -6.9754    0.0218    0.0000 C   0  0  0  0  0  0  0  0  0  0  0  0
   -6.4449   -1.3813    0.0000 N   0  0  0  0  0  0  0  0  0  0  0  0
   -4.9646   -1.6235    0.0000 C   0  0  0  0  0  0  0  0  0  0  0  0
  1  2  1  0
  2  3  1  0
  3  4  1  0
  4  5  1  0
  5  6  1  0
  6  7  1  0
  7  8  1  0
  8  9  1  0
  9 10  1  0
 10 11  1  0
 11 12  1  0
 11 13  1  0
 13 14  1  0
 14 15  1  0
 15 16  1  0
 16 17  2  0
 17 18  1  0
 18 19  2  0
 19 20  1  0
 20 21  2  0
  9  2  1  0
 21 16  1  0
 13  2  1  0
 12  3  1  0
  8  4  1  0
 12  6  1  0
 10  7  1  0
M  END
>  <ChemBL_ID>  (218) 
CHEMBL2205817

>  <Ki>  (218) 
100.0

>  <database>  (218) 
SRSLDB

$$$$

     RDKit          2D

 37 40  0  0  0  0  0  0  0  0999 V2000
   -3.0487   -4.2812    0.0000 C   0  0  0  0  0  0  0  0  0  0  0  0
   -1.5638   -4.4934    0.0000 C   0  0  0  0  0  0  0  0  0  0  0  0
   -0.0789   -4.7057    0.0000 C   0  0  0  0  0  0  0  0  0  0  0  0
    0.8474   -3.5259    0.0000 N   0  0  0  0  0  0  0  0  0  0  0  0
    2.3323   -3.7382    0.0000 C   0  0  0  0  0  0  0  0  0  0  0  0
    3.2586   -2.5583    0.0000 C   0  0  0  0  0  0  0  0  0  0  0  0
    4.7435   -2.7706    0.0000 C   0  0  0  0  0  0  0  0  0  0  0  0
    5.6698   -1.5908    0.0000 N   0  0  0  0  0  0  0  0  0  0  0  0
    7.1547   -1.8030    0.0000 C   0  0  0  0  0  0  0  0  0  0  0  0
    8.0810   -0.6232    0.0000 C   0  0  0  0  0  0  0  0  0  0  0  0
    7.5224    0.7689    0.0000 N   0  0  0  0  0  0  0  0  0  0  0  0
    8.4486    1.9487    0.0000 C   0  0  0  0  0  0  0  0  0  0  0  0
    9.9335    1.7364    0.0000 C   0  0  0  0  0  0  0  0  0  0  0  0
   10.8598    2.9163    0.0000 C   0  0  0  0  0  0  0  0  0  0  0  0
   10.3012    4.3084    0.0000 C   0  0  0  0  0  0  0  0  0  0  0  0
    8.8163    4.5206    0.0000 C   0  0  0  0  0  0  0  0  0  0  0  0
    7.8900    3.3408    0.0000 C   0  0  0  0  0  0  0  0  0  0  0  0
    6.0374    0.9812    0.0000 C   0  0  0  0  0  0  0  0  0  0  0  0
    5.1112   -0.1987    0.0000 C   0  0  0  0  0  0  0  0  0  0  0  0
    0.2888   -2.1338    0.0000 C   0  0  0  0  0  0  0  0  0  0  0  0
   -1.1961   -1.9215    0.0000 C   0  0  0  0  0  0  0  0  0  0  0  0
   -2.1224   -3.1013    0.0000 O   0  0  0  0  0  0  0  0  0  0  0  0
   -1.7547   -0.5294    0.0000 N   0  0  0  0  0  0  0  0  0  0  0  0
   -3.2396   -0.3171    0.0000 C   0  0  0  0  0  0  0  0  0  0  0  0
   -3.7983    1.0750    0.0000 C   0  0  0  0  0  0  0  0  0  0  0  0
   -5.2832    1.2872    0.0000 C   0  0  0  0  0  0  0  0  0  0  0  0
   -6.2095    0.1074    0.0000 C   0  0  0  0  0  0  0  0  0  0  0  0
   -7.6944    0.3197    0.0000 C   0  0  0  0  0  0  0  0  0  0  0  0
   -8.6206   -0.8601    0.0000 O   0  0  0  0  0  0  0  0  0  0  0  0
   -8.2530    1.7118    0.0000 C   0  0  0  0  0  0  0  0  0  0  0  0
   -7.3267    2.8916    0.0000 C   0  0  0  0  0  0  0  0  0  0  0  0
   -7.8853    4.2837    0.0000 C   0  0  0  0  0  0  0  0  0  0  0  0
   -9.3702    4.4960    0.0000 C   0  0  0  0  0  0  0  0  0  0  0  0
  -10.2965    3.3162    0.0000 C   0  0  0  0  0  0  0  0  0  0  0  0
   -9.7379    1.9241    0.0000 C   0  0  0  0  0  0  0  0  0  0  0  0
   -5.6508   -1.2847    0.0000 C   0  0  0  0  0  0  0  0  0  0  0  0
   -4.1659   -1.4970    0.0000 C   0  0  0  0  0  0  0  0  0  0  0  0
  1  2  3  0
  2  3  1  0
  3  4  1  0
  4  5  1  0
  5  6  1  0
  6  7  1  0
  7  8  1  0
  8  9  1  0
  9 10  1  0
 10 11  1  0
 11 12  1  0
 12 13  1  0
 13 14  1  0
 14 15  1  0
 15 16  1  0
 16 17  1  0
 11 18  1  0
 18 19  1  0
  4 20  1  0
 20 21  1  0
 21 22  2  0
 21 23  1  0
 23 24  1  0
 24 25  2  0
 25 26  1  0
 26 27  2  0
 27 28  1  0
 28 29  2  0
 28 30  1  0
 30 31  2  0
 31 32  1  0
 32 33  2  0
 33 34  1  0
 34 35  2  0
 27 36  1  0
 36 37  2  0
 19  8  1  0
 37 24  1  0
 17 12  1  0
 35 30  1  0
M  END
>  <Ki>  (219) 
2.11

>  <database>  (219) 
SRSLDB

$$$$

     RDKit          2D

 31 34  0  0  0  0  0  0  0  0999 V2000
   -2.4052    3.7193    0.0000 C   0  0  0  0  0  0  0  0  0  0  0  0
   -2.5019    2.2224    0.0000 O   0  0  0  0  0  0  0  0  0  0  0  0
   -1.2539    1.3902    0.0000 C   0  0  0  0  0  0  0  0  0  0  0  0
    0.0908    2.0549    0.0000 C   0  0  0  0  0  0  0  0  0  0  0  0
    1.3388    1.2227    0.0000 C   0  0  0  0  0  0  0  0  0  0  0  0
    1.2420   -0.2742    0.0000 C   0  0  0  0  0  0  0  0  0  0  0  0
    2.4900   -1.1064    0.0000 C   0  0  0  0  0  0  0  0  0  0  0  0
    3.8347   -0.4417    0.0000 N   0  0  0  0  0  0  0  0  0  0  0  0
    5.0827   -1.2739    0.0000 C   0  0  0  0  0  0  0  0  0  0  0  0
    6.4274   -0.6093    0.0000 C   0  0  0  0  0  0  0  0  0  0  0  0
    6.5241    0.8876    0.0000 C   0  0  0  0  0  0  0  0  0  0  0  0
    5.2761    1.7198    0.0000 C   0  0  0  0  0  0  0  0  0  0  0  0
    3.9314    1.0551    0.0000 C   0  0  0  0  0  0  0  0  0  0  0  0
    2.5867    0.3905    0.0000 C   0  0  0  0  0  0  0  0  0  0  0  0
    2.4900   -1.1064    0.0000 C   0  0  0  0  0  0  0  0  0  0  0  0
    1.1453   -1.7711    0.0000 O   0  0  0  0  0  0  0  0  0  0  0  0
   -0.1027   -0.9389    0.0000 C   0  0  0  0  0  0  0  0  0  0  0  0
   -0.0059    0.5580    0.0000 O   0  0  0  0  0  0  0  0  0  0  0  0
   -1.4474   -1.6036    0.0000 N   0  0  0  0  0  0  0  0  0  0  0  0
   -2.6953   -0.7714    0.0000 C   0  0  0  0  0  0  0  0  0  0  0  0
   -2.5986    0.7255    0.0000 C   0  0  0  0  0  0  0  0  0  0  0  0
   -3.8466    1.5577    0.0000 C   0  0  0  0  0  0  0  0  0  0  0  0
   -3.7499    3.0546    0.0000 C   0  0  0  0  0  0  0  0  0  0  0  0
   -5.1913    0.8931    0.0000 C   0  0  0  0  0  0  0  0  0  0  0  0
   -5.2880   -0.6038    0.0000 C   0  0  0  0  0  0  0  0  0  0  0  0
   -4.0400   -1.4360    0.0000 C   0  0  0  0  0  0  0  0  0  0  0  0
   -4.1368   -2.9329    0.0000 O   0  0  0  0  0  0  0  0  0  0  0  0
   -5.4814   -3.5976    0.0000 C   0  0  0  0  0  0  0  0  0  0  0  0
    3.7380   -1.9386    0.0000 C   0  0  0  0  0  0  0  0  0  0  0  0
   -0.1027   -0.9389    0.0000 C   0  0  0  0  0  0  0  0  0  0  0  0
   -1.3506   -0.1067    0.0000 C   0  0  0  0  0  0  0  0  0  0  0  0
  1  2  1  0
  2  3  1  0
  3  4  2  0
  4  5  1  0
  5  6  2  0
  6  7  1  0
  7  8  1  0
  8  9  1  0
  9 10  1  0
 10 11  1  0
 11 12  1  0
 12 13  1  0
 13 14  1  0
 14 15  1  0
 15 16  1  0
 16 17  1  0
 17 18  2  0
 17 19  1  0
 19 20  1  0
 20 21  2  0
 21 22  1  0
 22 23  1  0
 22 24  2  0
 24 25  1  0
 25 26  2  0
 26 27  1  0
 27 28  1  0
 15 29  1  0
  6 30  1  0
 30 31  2  0
 31  3  1  0
 13  8  1  0
 26 20  1  0
 29  9  1  0
M  END
>  <ChemBL_ID>  (220) 
CHEMBL479453

>  <Ki>  (220) 
40.7

>  <database>  (220) 
SRSLDB

$$$$

     RDKit          2D

 35 39  0  0  0  0  0  0  0  0999 V2000
   -9.6362   -2.4948    0.0000 C   0  0  0  0  0  0  0  0  0  0  0  0
   -8.2128   -2.9679    0.0000 O   0  0  0  0  0  0  0  0  0  0  0  0
   -7.0913   -1.9718    0.0000 C   0  0  0  0  0  0  0  0  0  0  0  0
   -7.3933   -0.5025    0.0000 C   0  0  0  0  0  0  0  0  0  0  0  0
   -6.2718    0.4937    0.0000 C   0  0  0  0  0  0  0  0  0  0  0  0
   -4.8484    0.0205    0.0000 C   0  0  0  0  0  0  0  0  0  0  0  0
   -4.5465   -1.4488    0.0000 C   0  0  0  0  0  0  0  0  0  0  0  0
   -5.6679   -2.4449    0.0000 C   0  0  0  0  0  0  0  0  0  0  0  0
   -5.3660   -3.9142    0.0000 O   0  0  0  0  0  0  0  0  0  0  0  0
   -3.9426   -4.3874    0.0000 C   0  0  0  0  0  0  0  0  0  0  0  0
   -3.7269    1.0167    0.0000 C   0  0  0  0  0  0  0  0  0  0  0  0
   -4.0289    2.4860    0.0000 N   0  0  0  0  0  0  0  0  0  0  0  0
   -2.9074    3.4821    0.0000 C   0  0  0  0  0  0  0  0  0  0  0  0
   -1.4840    3.0089    0.0000 C   0  0  0  0  0  0  0  0  0  0  0  0
   -0.3625    4.0051    0.0000 C   0  0  0  0  0  0  0  0  0  0  0  0
    1.0609    3.5319    0.0000 C   0  0  0  0  0  0  0  0  0  0  0  0
    1.3629    2.0626    0.0000 C   0  0  0  0  0  0  0  0  0  0  0  0
    2.7863    1.5895    0.0000 C   0  0  0  0  0  0  0  0  0  0  0  0
    3.9078    2.5856    0.0000 N   0  0  0  0  0  0  0  0  0  0  0  0
    5.3312    2.1125    0.0000 C   0  0  0  0  0  0  0  0  0  0  0  0
    6.4526    3.1086    0.0000 O   0  0  0  0  0  0  0  0  0  0  0  0
    5.6331    0.6432    0.0000 C   0  0  0  0  0  0  0  0  0  0  0  0
    4.6219   -0.4647    0.0000 C   0  0  0  0  0  0  0  0  0  0  0  0
    5.3631   -1.7688    0.0000 C   0  0  0  0  0  0  0  0  0  0  0  0
    4.8900   -3.1922    0.0000 C   0  0  0  0  0  0  0  0  0  0  0  0
    5.8861   -4.3137    0.0000 C   0  0  0  0  0  0  0  0  0  0  0  0
    5.4130   -5.7371    0.0000 I   0  0  0  0  0  0  0  0  0  0  0  0
    7.3554   -4.0118    0.0000 C   0  0  0  0  0  0  0  0  0  0  0  0
    7.8286   -2.5883    0.0000 C   0  0  0  0  0  0  0  0  0  0  0  0
    6.8324   -1.4669    0.0000 C   0  0  0  0  0  0  0  0  0  0  0  0
    6.9993    0.0238    0.0000 O   0  0  0  0  0  0  0  0  0  0  0  0
    3.6058    4.0549    0.0000 C   0  0  0  0  0  0  0  0  0  0  0  0
    2.1824    4.5281    0.0000 C   0  0  0  0  0  0  0  0  0  0  0  0
   -5.4523    2.9591    0.0000 C   0  0  0  0  0  0  0  0  0  0  0  0
   -6.5738    1.9630    0.0000 C   0  0  0  0  0  0  0  0  0  0  0  0
  1  2  1  0
  2  3  1  0
  3  4  2  0
  4  5  1  0
  5  6  2  0
  6  7  1  0
  7  8  2  0
  8  9  1  0
  9 10  1  0
  6 11  1  0
 11 12  1  0
 12 13  1  0
 13 14  1  0
 14 15  1  0
 15 16  1  0
 16 17  1  0
 17 18  1  0
 18 19  1  0
 19 20  1  0
 20 21  2  0
 20 22  1  0
 22 23  2  0
 23 24  1  0
 24 25  2  0
 25 26  1  0
 26 27  1  0
 26 28  2  0
 28 29  1  0
 29 30  2  0
 30 31  1  0
 19 32  1  0
 32 33  1  0
 12 34  1  0
 34 35  1  0
  8  3  1  0
 33 16  1  0
 35  5  1  0
 31 22  1  0
 30 24  1  0
M  END
>  <Ki>  (221) 
12.4

>  <database>  (221) 
SRSLDB

$$$$

     RDKit          2D

 37 40  0  0  0  0  0  0  0  0999 V2000
   -2.8505   -0.0208    0.0000 C   0  0  0  0  0  0  0  0  0  0  0  0
   -1.4388   -0.5278    0.0000 C   0  0  0  0  0  0  0  0  0  0  0  0
   -0.0271   -1.0348    0.0000 C   0  0  0  0  0  0  0  0  0  0  0  0
    0.2397   -2.5109    0.0000 N   0  0  0  0  0  0  0  0  0  0  0  0
    1.6514   -3.0179    0.0000 C   0  0  0  0  0  0  0  0  0  0  0  0
    2.7964   -2.0489    0.0000 C   0  0  0  0  0  0  0  0  0  0  0  0
    4.2081   -2.5559    0.0000 C   0  0  0  0  0  0  0  0  0  0  0  0
    5.3530   -1.5868    0.0000 N   0  0  0  0  0  0  0  0  0  0  0  0
    6.7647   -2.0939    0.0000 C   0  0  0  0  0  0  0  0  0  0  0  0
    7.9097   -1.1248    0.0000 C   0  0  0  0  0  0  0  0  0  0  0  0
    7.6429    0.3513    0.0000 N   0  0  0  0  0  0  0  0  0  0  0  0
    8.7879    1.3203    0.0000 C   0  0  0  0  0  0  0  0  0  0  0  0
   10.1996    0.8133    0.0000 C   0  0  0  0  0  0  0  0  0  0  0  0
   11.3445    1.7824    0.0000 C   0  0  0  0  0  0  0  0  0  0  0  0
   11.0778    3.2585    0.0000 C   0  0  0  0  0  0  0  0  0  0  0  0
    9.6661    3.7655    0.0000 C   0  0  0  0  0  0  0  0  0  0  0  0
    8.5211    2.7964    0.0000 C   0  0  0  0  0  0  0  0  0  0  0  0
    6.2312    0.8583    0.0000 C   0  0  0  0  0  0  0  0  0  0  0  0
    5.0863   -0.1108    0.0000 C   0  0  0  0  0  0  0  0  0  0  0  0
   -0.9053   -3.4800    0.0000 C   0  0  0  0  0  0  0  0  0  0  0  0
   -2.3170   -2.9729    0.0000 C   0  0  0  0  0  0  0  0  0  0  0  0
   -2.5837   -1.4969    0.0000 C   0  0  0  0  0  0  0  0  0  0  0  0
   -3.9954   -0.9898    0.0000 C   0  0  0  0  0  0  0  0  0  0  0  0
   -5.1404   -1.9589    0.0000 C   0  0  0  0  0  0  0  0  0  0  0  0
   -6.5521   -1.4519    0.0000 C   0  0  0  0  0  0  0  0  0  0  0  0
   -7.6970   -2.4209    0.0000 O   0  0  0  0  0  0  0  0  0  0  0  0
   -6.8188    0.0242    0.0000 C   0  0  0  0  0  0  0  0  0  0  0  0
   -5.6739    0.9933    0.0000 C   0  0  0  0  0  0  0  0  0  0  0  0
   -5.9406    2.4694    0.0000 C   0  0  0  0  0  0  0  0  0  0  0  0
   -7.3524    2.9764    0.0000 C   0  0  0  0  0  0  0  0  0  0  0  0
   -7.6191    4.4525    0.0000 N   0  0  0  0  0  4  0  0  0  0  0  0
   -9.0308    4.9595    0.0000 O   0  0  0  0  0  0  0  0  0  0  0  0
   -6.4742    5.4216    0.0000 O   0  0  0  0  0  1  0  0  0  0  0  0
   -8.4973    2.0073    0.0000 C   0  0  0  0  0  0  0  0  0  0  0  0
   -8.2306    0.5313    0.0000 C   0  0  0  0  0  0  0  0  0  0  0  0
   -4.8736   -3.4350    0.0000 C   0  0  0  0  0  0  0  0  0  0  0  0
   -3.4619   -3.9420    0.0000 C   0  0  0  0  0  0  0  0  0  0  0  0
  1  2  3  0
  2  3  1  0
  3  4  1  0
  4  5  1  0
  5  6  1  0
  6  7  1  0
  7  8  1  0
  8  9  1  0
  9 10  1  0
 10 11  1  0
 11 12  1  0
 12 13  1  0
 13 14  1  0
 14 15  1  0
 15 16  1  0
 16 17  1  0
 11 18  1  0
 18 19  1  0
  4 20  1  0
 20 21  1  0
 21 22  2  0
 22 23  1  0
 23 24  2  0
 24 25  1  0
 25 26  2  0
 25 27  1  0
 27 28  2  0
 28 29  1  0
 29 30  2  0
 30 31  1  0
 31 32  2  0
 31 33  1  0
 30 34  1  0
 34 35  2  0
 24 36  1  0
 36 37  2  0
 19  8  1  0
 37 21  1  0
 17 12  1  0
 35 27  1  0
M  CHG  2  31   1  33  -1
M  END
>  <Ki>  (222) 
3.78

>  <database>  (222) 
SRSLDB

$$$$

     RDKit          2D

 30 33  0  0  0  0  0  0  0  0999 V2000
   -5.2347   -2.4793    0.0000 C   0  0  0  0  0  0  0  0  0  0  0  0
   -4.4036   -1.2306    0.0000 N   0  0  0  0  0  0  0  0  0  0  0  0
   -2.9066   -1.3260    0.0000 C   0  0  0  0  0  0  0  0  0  0  0  0
   -2.0755   -0.0772    0.0000 C   0  0  0  0  0  0  0  0  0  0  0  0
   -0.5786   -0.1726    0.0000 C   0  0  0  0  0  0  0  0  0  0  0  0
    0.2525    1.0761    0.0000 C   0  0  0  0  0  0  0  0  0  0  0  0
    1.7495    0.9807    0.0000 C   0  0  0  0  0  0  0  0  0  0  0  0
    2.5522   -0.2865    0.0000 C   0  0  0  0  0  0  0  0  0  0  0  0
    4.0054    0.0854    0.0000 N   0  0  0  0  0  0  0  0  0  0  0  0
    5.1604   -0.8717    0.0000 C   0  0  0  0  0  0  0  0  0  0  0  0
    4.9090   -2.3505    0.0000 C   0  0  0  0  0  0  0  0  0  0  0  0
    6.0640   -3.3075    0.0000 C   0  0  0  0  0  0  0  0  0  0  0  0
    7.4704   -2.7858    0.0000 C   0  0  0  0  0  0  0  0  0  0  0  0
    8.6254   -3.7429    0.0000 F   0  0  0  0  0  0  0  0  0  0  0  0
    7.7217   -1.3070    0.0000 C   0  0  0  0  0  0  0  0  0  0  0  0
    6.5667   -0.3499    0.0000 C   0  0  0  0  0  0  0  0  0  0  0  0
    4.1008    1.5824    0.0000 C   0  0  0  0  0  0  0  0  0  0  0  0
    5.2771    2.5131    0.0000 C   0  0  0  0  0  0  0  0  0  0  0  0
    5.0591    3.9972    0.0000 C   0  0  0  0  0  0  0  0  0  0  0  0
    3.6649    4.5505    0.0000 C   0  0  0  0  0  0  0  0  0  0  0  0
    2.4886    3.6198    0.0000 C   0  0  0  0  0  0  0  0  0  0  0  0
    2.7066    2.1357    0.0000 C   0  0  0  0  0  0  0  0  0  0  0  0
   -5.0695    0.1135    0.0000 C   0  0  0  0  0  0  0  0  0  0  0  0
   -6.5664    0.2089    0.0000 C   0  0  0  0  0  0  0  0  0  0  0  0
   -7.2323    1.5531    0.0000 C   0  0  0  0  0  0  0  0  0  0  0  0
   -8.7293    1.6484    0.0000 C   0  0  0  0  0  0  0  0  0  0  0  0
   -9.5603    0.3997    0.0000 C   0  0  0  0  0  0  0  0  0  0  0  0
   -8.8945   -0.9444    0.0000 C   0  0  0  0  0  0  0  0  0  0  0  0
   -9.7256   -2.1931    0.0000 Cl  0  0  0  0  0  0  0  0  0  0  0  0
   -7.3975   -1.0398    0.0000 C   0  0  0  0  0  0  0  0  0  0  0  0
  1  2  1  0
  2  3  1  0
  3  4  1  0
  4  5  1  0
  5  6  1  0
  6  7  1  0
  7  8  2  0
  8  9  1  0
  9 10  1  0
 10 11  2  0
 11 12  1  0
 12 13  2  0
 13 14  1  0
 13 15  1  0
 15 16  2  0
  9 17  1  0
 17 18  2  0
 18 19  1  0
 19 20  2  0
 20 21  1  0
 21 22  2  0
  2 23  1  0
 23 24  1  0
 24 25  2  0
 25 26  1  0
 26 27  2  0
 27 28  1  0
 28 29  1  0
 28 30  2  0
 22  7  1  0
 30 24  1  0
 16 10  1  0
 22 17  1  0
M  END
>  <ChemBL_ID>  (223) 
CHEMBL490214

>  <Ki>  (223) 
25.6

>  <database>  (223) 
SRSLDB

$$$$

     RDKit          2D

 30 33  0  0  0  0  0  0  0  0999 V2000
   -9.2926   -4.5054    0.0000 C   0  0  0  0  0  0  0  0  0  0  0  0
   -7.9303   -3.8777    0.0000 O   0  0  0  0  0  0  0  0  0  0  0  0
   -7.7928   -2.3840    0.0000 C   0  0  0  0  0  0  0  0  0  0  0  0
   -9.0177   -1.5181    0.0000 C   0  0  0  0  0  0  0  0  0  0  0  0
   -8.8802   -0.0244    0.0000 C   0  0  0  0  0  0  0  0  0  0  0  0
   -7.5179    0.6034    0.0000 C   0  0  0  0  0  0  0  0  0  0  0  0
   -6.2930   -0.2625    0.0000 C   0  0  0  0  0  0  0  0  0  0  0  0
   -6.4305   -1.7562    0.0000 C   0  0  0  0  0  0  0  0  0  0  0  0
   -4.9307    0.3653    0.0000 C   0  0  0  0  0  0  0  0  0  0  0  0
   -4.7933    1.8590    0.0000 N   0  0  0  0  0  0  0  0  0  0  0  0
   -3.4310    2.4868    0.0000 C   0  0  0  0  0  0  0  0  0  0  0  0
   -2.2061    1.6209    0.0000 C   0  0  0  0  0  0  0  0  0  0  0  0
   -0.8438    2.2486    0.0000 C   0  0  0  0  0  0  0  0  0  0  0  0
    0.3810    1.3827    0.0000 C   0  0  0  0  0  0  0  0  0  0  0  0
    1.7433    2.0105    0.0000 C   0  0  0  0  0  0  0  0  0  0  0  0
    2.9682    1.1446    0.0000 N   0  0  0  0  0  0  0  0  0  0  0  0
    4.3305    1.7724    0.0000 C   0  0  0  0  0  0  0  0  0  0  0  0
    4.4679    3.2661    0.0000 O   0  0  0  0  0  0  0  0  0  0  0  0
    5.5553    0.9065    0.0000 C   0  0  0  0  0  0  0  0  0  0  0  0
    5.5747   -0.5934    0.0000 C   0  0  0  0  0  0  0  0  0  0  0  0
    7.0072   -1.0384    0.0000 C   0  0  0  0  0  0  0  0  0  0  0  0
    7.6350   -2.4007    0.0000 C   0  0  0  0  0  0  0  0  0  0  0  0
    9.1287   -2.5382    0.0000 C   0  0  0  0  0  0  0  0  0  0  0  0
    9.7564   -3.9005    0.0000 I   0  0  0  0  0  0  0  0  0  0  0  0
    9.9946   -1.3133    0.0000 C   0  0  0  0  0  0  0  0  0  0  0  0
    9.3668    0.0490    0.0000 C   0  0  0  0  0  0  0  0  0  0  0  0
    7.8731    0.1864    0.0000 C   0  0  0  0  0  0  0  0  0  0  0  0
    6.9758    1.3885    0.0000 O   0  0  0  0  0  0  0  0  0  0  0  0
   -6.0181    2.7249    0.0000 C   0  0  0  0  0  0  0  0  0  0  0  0
   -7.3804    2.0971    0.0000 C   0  0  0  0  0  0  0  0  0  0  0  0
  1  2  1  0
  2  3  1  0
  3  4  2  0
  4  5  1  0
  5  6  2  0
  6  7  1  0
  7  8  2  0
  7  9  1  0
  9 10  1  0
 10 11  1  0
 11 12  1  0
 12 13  1  0
 13 14  1  0
 14 15  1  0
 15 16  1  0
 16 17  1  0
 17 18  2  0
 17 19  1  0
 19 20  2  0
 20 21  1  0
 21 22  2  0
 22 23  1  0
 23 24  1  0
 23 25  2  0
 25 26  1  0
 26 27  2  0
 27 28  1  0
 10 29  1  0
 29 30  1  0
  8  3  1  0
 28 19  1  0
 30  6  1  0
 27 21  1  0
M  END
>  <Ki>  (224) 
31.0

>  <database>  (224) 
SRSLDB

$$$$

     RDKit          2D

 52 56  0  0  0  0  0  0  0  0999 V2000
    2.6110   -3.5110    0.0000 C   0  0  0  0  0  0  0  0  0  0  0  0
    3.9239   -2.7856    0.0000 O   0  0  0  0  0  0  0  0  0  0  0  0
    3.9522   -1.2859    0.0000 C   0  0  0  0  0  0  0  0  0  0  0  0
    2.6676   -0.5115    0.0000 C   0  0  0  0  0  0  0  0  0  0  0  0
    2.6959    0.9882    0.0000 C   0  0  0  0  0  0  0  0  0  0  0  0
    4.0088    1.7136    0.0000 C   0  0  0  0  0  0  0  0  0  0  0  0
    4.0371    3.2133    0.0000 C   0  0  0  0  0  0  0  0  0  0  0  0
    5.2935    0.9392    0.0000 C   0  0  0  0  0  0  0  0  0  0  0  0
    5.2652   -0.5605    0.0000 C   0  0  0  0  0  0  0  0  0  0  0  0
    6.5498   -1.3349    0.0000 N   0  0  0  0  0  0  0  0  0  0  0  0
    7.8628   -0.6095    0.0000 C   0  0  0  0  0  0  0  0  0  0  0  0
    7.8911    0.8902    0.0000 O   0  0  0  0  0  0  0  0  0  0  0  0
    9.1475   -1.3839    0.0000 O   0  0  0  0  0  0  0  0  0  0  0  0
   10.4604   -0.6586    0.0000 C   0  0  0  0  0  0  0  0  0  0  0  0
   11.7451   -1.4329    0.0000 C   0  0  0  0  0  0  0  0  0  0  0  0
   13.0580   -0.7076    0.0000 C   0  0  0  0  0  0  0  0  0  0  0  0
   14.3710    0.0178    0.0000 C   0  0  0  0  0  0  0  0  0  0  0  0
   14.3993    1.5175    0.0000 C   0  0  0  0  0  0  0  0  0  0  0  0
   13.1146    2.2919    0.0000 C   0  0  0  0  0  0  0  0  0  0  0  0
   11.8017    1.5665    0.0000 C   0  0  0  0  0  0  0  0  0  0  0  0
   10.4887    0.8412    0.0000 C   0  0  0  0  0  0  0  0  0  0  0  0
   11.7734    0.0668    0.0000 N   0  0  0  0  0  0  0  0  0  0  0  0
   10.4604   -0.6586    0.0000 C   0  0  0  0  0  0  0  0  0  0  0  0
    9.1758    0.1158    0.0000 C   0  0  0  0  0  0  0  0  0  0  0  0
    7.8628   -0.6095    0.0000 C   0  0  0  0  0  0  0  0  0  0  0  0
    6.5781    0.1648    0.0000 C   0  0  0  0  0  0  0  0  0  0  0  0
    5.2652   -0.5605    0.0000 C   0  0  0  0  0  0  0  0  0  0  0  0
    3.9805    0.2138    0.0000 C   0  0  0  0  0  0  0  0  0  0  0  0
    2.6676   -0.5115    0.0000 N   0  0  0  0  0  0  0  0  0  0  0  0
    1.3829    0.2629    0.0000 C   0  0  0  0  0  0  0  0  0  0  0  0
    1.4112    1.7626    0.0000 O   0  0  0  0  0  0  0  0  0  0  0  0
    0.0700   -0.4625    0.0000 C   0  0  0  0  0  0  0  0  0  0  0  0
   -1.2147    0.3119    0.0000 C   0  0  0  0  0  0  0  0  0  0  0  0
   -2.5277   -0.4135    0.0000 C   0  0  0  0  0  0  0  0  0  0  0  0
   -3.8123    0.3609    0.0000 C   0  0  0  0  0  0  0  0  0  0  0  0
   -5.1253   -0.3645    0.0000 C   0  0  0  0  0  0  0  0  0  0  0  0
   -6.4099    0.4099    0.0000 N   0  0  0  0  0  0  0  0  0  0  0  0
   -7.7229   -0.3155    0.0000 C   0  0  0  0  0  0  0  0  0  0  0  0
   -7.7512   -1.8152    0.0000 O   0  0  0  0  0  0  0  0  0  0  0  0
   -9.0075    0.4589    0.0000 C   0  0  0  0  0  0  0  0  0  0  0  0
  -10.3205   -0.2664    0.0000 C   0  0  0  0  0  0  0  0  0  0  0  0
  -11.6052    0.5079    0.0000 C   0  0  0  0  0  0  0  0  0  0  0  0
  -12.9181   -0.2174    0.0000 C   0  0  0  0  0  0  0  0  0  0  0  0
  -14.2028    0.5569    0.0000 C   0  0  0  0  0  0  0  0  0  0  0  0
  -14.3314    2.0514    0.0000 S   0  0  0  0  0  0  0  0  0  0  0  0
  -15.7925    2.3909    0.0000 C   0  0  0  0  0  0  0  0  0  0  0  0
  -16.5668    1.1062    0.0000 C   0  0  0  0  0  0  0  0  0  0  0  0
  -17.9484    0.5221    0.0000 N   0  0  0  0  0  0  0  0  0  0  0  0
  -17.8198   -0.9724    0.0000 C   0  0  0  0  0  0  0  0  0  0  0  0
  -18.9533   -1.9549    0.0000 O   0  0  0  0  0  0  0  0  0  0  0  0
  -16.3587   -1.3119    0.0000 N   0  0  0  0  0  0  0  0  0  0  0  0
  -15.5843   -0.0272    0.0000 C   0  0  0  0  0  0  0  0  0  0  0  0
  1  2  1  0
  2  3  1  0
  3  4  2  0
  4  5  1  0
  5  6  2  0
  6  7  1  0
  6  8  1  0
  8  9  2  0
  9 10  1  0
 10 11  1  0
 11 12  2  0
 11 13  1  0
 13 14  1  0
 14 15  1  0
 15 16  1  0
 16 17  1  0
 17 18  1  0
 18 19  1  0
 19 20  1  0
 20 21  1  0
 20 22  1  0
 22 23  1  0
 23 24  1  0
 24 25  1  0
 25 26  1  0
 26 27  1  0
 27 28  1  0
 28 29  1  0
 29 30  1  0
 30 31  2  0
 30 32  1  0
 32 33  1  0
 33 34  1  0
 34 35  1  0
 35 36  1  0
 36 37  1  0
 37 38  1  0
 38 39  2  0
 38 40  1  0
 40 41  1  0
 41 42  1  0
 42 43  1  0
 44 43  1  6
 44 45  1  0
 45 46  1  0
 47 46  1  6
 47 48  1  0
 48 49  1  0
 49 50  2  0
 49 51  1  0
 52 51  1  6
  9  3  1  0
 21 14  1  0
 52 44  1  0
 22 16  1  0
 52 47  1  0
M  END
>  <Ki>  (225) 
1351.0

>  <database>  (225) 
SRSLDB

$$$$

     RDKit          2D

 31 34  0  0  0  0  0  0  0  0999 V2000
    8.3484    2.3393    0.0000 C   0  0  0  0  0  0  0  0  0  0  0  0
    7.3222    1.2452    0.0000 N   0  0  0  0  0  0  0  0  0  0  0  0
    5.8339    1.4323    0.0000 C   0  0  0  0  0  0  0  0  0  0  0  0
    5.1105    2.7463    0.0000 O   0  0  0  0  0  0  0  0  0  0  0  0
    5.1961    0.0747    0.0000 N   0  0  0  0  0  0  0  0  0  0  0  0
    3.7228   -0.2073    0.0000 C   0  0  0  0  0  0  0  0  0  0  0  0
    2.7420    0.9276    0.0000 C   0  0  0  0  0  0  0  0  0  0  0  0
    1.2687    0.6456    0.0000 C   0  0  0  0  0  0  0  0  0  0  0  0
    0.2879    1.7805    0.0000 C   0  0  0  0  0  0  0  0  0  0  0  0
   -1.1854    1.4985    0.0000 N   0  0  0  0  0  0  0  0  0  0  0  0
   -2.1662    2.6334    0.0000 C   0  0  0  0  0  0  0  0  0  0  0  0
   -3.6394    2.3515    0.0000 C   0  0  0  0  0  0  0  0  0  0  0  0
   -4.1319    0.9346    0.0000 N   0  0  0  0  0  0  0  0  0  0  0  0
   -5.6051    0.6526    0.0000 C   0  0  0  0  0  0  0  0  0  0  0  0
   -6.5860    1.7875    0.0000 C   0  0  0  0  0  0  0  0  0  0  0  0
   -8.0592    1.5056    0.0000 C   0  0  0  0  0  0  0  0  0  0  0  0
   -8.5516    0.0887    0.0000 C   0  0  0  0  0  0  0  0  0  0  0  0
  -10.0249   -0.1933    0.0000 F   0  0  0  0  0  0  0  0  0  0  0  0
   -7.5708   -1.0462    0.0000 C   0  0  0  0  0  0  0  0  0  0  0  0
   -6.0976   -0.7642    0.0000 C   0  0  0  0  0  0  0  0  0  0  0  0
   -5.1167   -1.8991    0.0000 N   0  0  0  0  0  0  0  0  0  0  0  0
   -5.6092   -3.3160    0.0000 C   0  0  0  0  0  0  0  0  0  0  0  0
   -6.1016   -4.7328    0.0000 S   0  0  0  0  0  0  0  0  0  0  0  0
   -3.1510   -0.2003    0.0000 C   0  0  0  0  0  0  0  0  0  0  0  0
   -1.6778    0.0817    0.0000 C   0  0  0  0  0  0  0  0  0  0  0  0
    6.2901   -0.9515    0.0000 C   0  0  0  0  0  0  0  0  0  0  0  0
    6.2596   -2.4512    0.0000 C   0  0  0  0  0  0  0  0  0  0  0  0
    7.5432   -3.2274    0.0000 C   0  0  0  0  0  0  0  0  0  0  0  0
    8.8572   -2.5040    0.0000 C   0  0  0  0  0  0  0  0  0  0  0  0
    8.8877   -1.0043    0.0000 C   0  0  0  0  0  0  0  0  0  0  0  0
    7.6042   -0.2281    0.0000 C   0  0  0  0  0  0  0  0  0  0  0  0
  1  2  1  0
  2  3  1  0
  3  4  2  0
  3  5  1  0
  5  6  1  0
  6  7  1  0
  7  8  1  0
  8  9  1  0
  9 10  1  0
 10 11  1  0
 11 12  1  0
 12 13  1  0
 13 14  1  0
 14 15  2  0
 15 16  1  0
 16 17  2  0
 17 18  1  0
 17 19  1  0
 19 20  2  0
 20 21  1  0
 21 22  2  0
 22 23  2  0
 13 24  1  0
 24 25  1  0
  5 26  1  0
 26 27  2  0
 27 28  1  0
 28 29  2  0
 29 30  1  0
 30 31  2  0
 31  2  1  0
 25 10  1  0
 31 26  1  0
 20 14  1  0
M  END
>  <Ki>  (226) 
12.6

>  <database>  (226) 
SRSLDB

$$$$

     RDKit          2D

 28 31  0  0  0  0  0  0  0  0999 V2000
    5.8506   -3.6832    0.0000 O   0  0  0  0  0  0  0  0  0  0  0  0
    6.1440   -2.2122    0.0000 C   0  0  0  0  0  0  0  0  0  0  0  0
    7.5065   -1.5849    0.0000 O   0  0  0  0  0  0  0  0  0  0  0  0
    7.3310   -0.0952    0.0000 C   0  0  0  0  0  0  0  0  0  0  0  0
    8.3206    1.0321    0.0000 C   0  0  0  0  0  0  0  0  0  0  0  0
    7.8391    2.4527    0.0000 C   0  0  0  0  0  0  0  0  0  0  0  0
    6.3681    2.7461    0.0000 C   0  0  0  0  0  0  0  0  0  0  0  0
    5.3785    1.6188    0.0000 C   0  0  0  0  0  0  0  0  0  0  0  0
    5.8600    0.1982    0.0000 C   0  0  0  0  0  0  0  0  0  0  0  0
    5.1264   -1.1102    0.0000 N   0  0  0  0  0  0  0  0  0  0  0  0
    3.6367   -1.2857    0.0000 C   0  0  0  0  0  0  0  0  0  0  0  0
    2.7398   -0.0834    0.0000 C   0  0  0  0  0  0  0  0  0  0  0  0
    1.2501   -0.2590    0.0000 C   0  0  0  0  0  0  0  0  0  0  0  0
    0.3532    0.9434    0.0000 C   0  0  0  0  0  0  0  0  0  0  0  0
   -1.1365    0.7678    0.0000 N   0  0  0  0  0  0  0  0  0  0  0  0
   -2.0334    1.9701    0.0000 C   0  0  0  0  0  0  0  0  0  0  0  0
   -3.5230    1.7946    0.0000 C   0  0  0  0  0  0  0  0  0  0  0  0
   -4.1159    0.4167    0.0000 N   0  0  0  0  0  0  0  0  0  0  0  0
   -5.6055    0.2412    0.0000 C   0  0  0  0  0  0  0  0  0  0  0  0
   -6.5024    1.4435    0.0000 C   0  0  0  0  0  0  0  0  0  0  0  0
   -7.9921    1.2679    0.0000 C   0  0  0  0  0  0  0  0  0  0  0  0
   -8.5849   -0.1100    0.0000 C   0  0  0  0  0  0  0  0  0  0  0  0
  -10.0746   -0.2855    0.0000 F   0  0  0  0  0  0  0  0  0  0  0  0
   -7.6881   -1.3123    0.0000 C   0  0  0  0  0  0  0  0  0  0  0  0
   -6.1984   -1.1367    0.0000 C   0  0  0  0  0  0  0  0  0  0  0  0
   -5.3015   -2.3391    0.0000 F   0  0  0  0  0  0  0  0  0  0  0  0
   -3.2190   -0.7856    0.0000 C   0  0  0  0  0  0  0  0  0  0  0  0
   -1.7293   -0.6101    0.0000 C   0  0  0  0  0  0  0  0  0  0  0  0
  1  2  2  0
  2  3  1  0
  3  4  1  0
  4  5  2  0
  5  6  1  0
  6  7  2  0
  7  8  1  0
  8  9  2  0
  9 10  1  0
 10 11  1  0
 11 12  1  0
 12 13  1  0
 13 14  1  0
 14 15  1  0
 15 16  1  0
 16 17  1  0
 17 18  1  0
 18 19  1  0
 19 20  2  0
 20 21  1  0
 21 22  2  0
 22 23  1  0
 22 24  1  0
 24 25  2  0
 25 26  1  0
 18 27  1  0
 27 28  1  0
 10  2  1  0
 28 15  1  0
  9  4  1  0
 25 19  1  0
M  END
>  <Ki>  (227) 
1.96

>  <database>  (227) 
SRSLDB

$$$$

     RDKit          2D

 31 35  0  0  0  0  0  0  0  0999 V2000
    8.2904    3.3836    0.0000 C   0  0  0  0  0  0  0  0  0  0  0  0
    8.6693    1.9323    0.0000 C   0  0  0  0  0  0  0  0  0  0  0  0
    7.6018    0.8785    0.0000 C   0  0  0  0  0  0  0  0  0  0  0  0
    6.1555    1.2760    0.0000 C   0  0  0  0  0  0  0  0  0  0  0  0
    5.0880    0.2222    0.0000 C   0  0  0  0  0  0  0  0  0  0  0  0
    3.6080    0.4663    0.0000 C   0  0  0  0  0  0  0  0  0  0  0  0
    2.9185   -0.8658    0.0000 N   0  0  0  0  0  0  0  0  0  0  0  0
    1.4355   -1.0909    0.0000 C   0  0  0  0  0  0  0  0  0  0  0  0
    0.4990    0.0809    0.0000 C   0  0  0  0  0  0  0  0  0  0  0  0
   -0.9840   -0.1443    0.0000 C   0  0  0  0  0  0  0  0  0  0  0  0
   -1.9205    1.0275    0.0000 C   0  0  0  0  0  0  0  0  0  0  0  0
   -3.4035    0.8024    0.0000 N   0  0  0  0  0  0  0  0  0  0  0  0
   -4.3400    1.9741    0.0000 C   0  0  0  0  0  0  0  0  0  0  0  0
   -5.8230    1.7490    0.0000 C   0  0  0  0  0  0  0  0  0  0  0  0
   -6.3695    0.3521    0.0000 N   0  0  0  0  0  0  0  0  0  0  0  0
   -7.8525    0.1270    0.0000 C   0  0  0  0  0  0  0  0  0  0  0  0
   -8.7890    1.2987    0.0000 C   0  0  0  0  0  0  0  0  0  0  0  0
  -10.2720    1.0736    0.0000 C   0  0  0  0  0  0  0  0  0  0  0  0
  -10.8185   -0.3233    0.0000 C   0  0  0  0  0  0  0  0  0  0  0  0
   -9.8821   -1.4950    0.0000 C   0  0  0  0  0  0  0  0  0  0  0  0
   -8.3991   -1.2699    0.0000 C   0  0  0  0  0  0  0  0  0  0  0  0
   -5.4330   -0.8196    0.0000 C   0  0  0  0  0  0  0  0  0  0  0  0
   -3.9500   -0.5945    0.0000 C   0  0  0  0  0  0  0  0  0  0  0  0
    3.9723   -1.9332    0.0000 C   0  0  0  0  0  0  0  0  0  0  0  0
    3.8842   -3.4306    0.0000 C   0  0  0  0  0  0  0  0  0  0  0  0
    5.1369   -4.2557    0.0000 C   0  0  0  0  0  0  0  0  0  0  0  0
    6.4778   -3.5833    0.0000 C   0  0  0  0  0  0  0  0  0  0  0  0
    6.5659   -2.0859    0.0000 C   0  0  0  0  0  0  0  0  0  0  0  0
    5.3132   -1.2608    0.0000 C   0  0  0  0  0  0  0  0  0  0  0  0
    5.7766    2.7274    0.0000 C   0  0  0  0  0  0  0  0  0  0  0  0
    6.8440    3.7812    0.0000 C   0  0  0  0  0  0  0  0  0  0  0  0
  1  2  2  0
  2  3  1  0
  3  4  2  0
  4  5  1  0
  5  6  2  0
  6  7  1  0
  7  8  1  0
  8  9  1  0
  9 10  1  0
 10 11  1  0
 11 12  1  0
 12 13  1  0
 13 14  1  0
 14 15  1  0
 15 16  1  0
 16 17  1  0
 17 18  1  0
 18 19  1  0
 19 20  1  0
 20 21  1  0
 15 22  1  0
 22 23  1  0
  7 24  1  0
 24 25  2  0
 25 26  1  0
 26 27  2  0
 27 28  1  0
 28 29  2  0
  4 30  1  0
 30 31  2  0
 31  1  1  0
 29  5  1  0
 23 12  1  0
 29 24  1  0
 21 16  1  0
M  END
>  <ChemBL_ID>  (228) 
CHEMBL1831161

>  <Ki>  (228) 
12.3

>  <database>  (228) 
SRSLDB

$$$$

     RDKit          2D

 15 17  0  0  0  0  0  0  0  0999 V2000
    4.7922    0.3198    0.0000 C   0  0  0  0  0  0  0  0  0  0  0  0
    4.3315   -1.1077    0.0000 C   0  0  0  0  0  0  0  0  0  0  0  0
    2.8649   -1.4224    0.0000 C   0  0  0  0  0  0  0  0  0  0  0  0
    1.8590   -0.3097    0.0000 C   0  0  0  0  0  0  0  0  0  0  0  0
    0.3924   -0.6244    0.0000 C   0  0  0  0  0  0  0  0  0  0  0  0
   -0.6135    0.4884    0.0000 C   0  0  0  0  0  0  0  0  0  0  0  0
   -2.0801    0.1736    0.0000 N   0  0  0  0  0  0  0  0  0  0  0  0
   -2.6875   -1.1979    0.0000 C   0  0  0  0  0  0  0  0  0  0  0  0
   -4.1796   -1.0440    0.0000 C   0  0  0  0  0  0  0  0  0  0  0  0
   -4.4943    0.4226    0.0000 C   0  0  0  0  0  0  0  0  0  0  0  0
   -3.1967    1.1752    0.0000 C   0  0  0  0  0  0  0  0  0  0  0  0
   -1.7047    1.0213    0.0000 C   0  0  0  0  0  0  0  0  0  0  0  0
   -1.3899   -0.4453    0.0000 C   0  0  0  0  0  0  0  0  0  0  0  0
    2.3198    1.1178    0.0000 N   0  0  0  0  0  0  0  0  0  0  0  0
    3.7864    1.4326    0.0000 C   0  0  0  0  0  0  0  0  0  0  0  0
  1  2  2  0
  2  3  1  0
  3  4  2  0
  4  5  1  0
  5  6  1  0
  6  7  1  0
  7  8  1  0
  8  9  1  0
  9 10  1  0
 10 11  1  0
 11 12  1  0
 12 13  1  0
  4 14  1  0
 14 15  2  0
 15  1  1  0
 11  7  1  0
 13  8  1  0
M  END
>  <ChemBL_ID>  (229) 
CHEMBL2030629

>  <Ki>  (229) 
517.0

>  <database>  (229) 
SRSLDB

$$$$

     RDKit          2D

 36 38  0  0  0  0  0  0  0  0999 V2000
  -15.8100   -1.3596    0.0000 C   0  0  0  0  0  0  0  0  0  0  0  0
  -14.4001   -1.8717    0.0000 C   0  0  0  0  0  0  0  0  0  0  0  0
  -12.9902   -2.3838    0.0000 C   0  0  0  0  0  0  0  0  0  0  0  0
  -11.8418   -1.4189    0.0000 N   0  0  0  0  0  0  0  0  0  0  0  0
  -10.4319   -1.9310    0.0000 C   0  0  0  0  0  0  0  0  0  0  0  0
   -9.2835   -0.9661    0.0000 C   0  0  0  0  0  0  0  0  0  0  0  0
   -7.8736   -1.4782    0.0000 C   0  0  0  0  0  0  0  0  0  0  0  0
   -6.7252   -0.5133    0.0000 N   0  0  0  0  0  0  0  0  0  0  0  0
   -6.9866    0.9637    0.0000 C   0  0  0  0  0  0  0  0  0  0  0  0
   -5.8382    1.9287    0.0000 C   0  0  0  0  0  0  0  0  0  0  0  0
   -4.4283    1.4166    0.0000 N   0  0  0  0  0  0  0  0  0  0  0  0
   -3.2798    2.3815    0.0000 C   0  0  0  0  0  0  0  0  0  0  0  0
   -1.8700    1.8694    0.0000 C   0  0  0  0  0  0  0  0  0  0  0  0
   -0.7215    2.8343    0.0000 C   0  0  0  0  0  0  0  0  0  0  0  0
    0.6883    2.3222    0.0000 N   0  0  0  0  0  0  0  0  0  0  0  0
    1.8368    3.2871    0.0000 C   0  0  0  0  0  0  0  0  0  0  0  0
    1.5754    4.7641    0.0000 O   0  0  0  0  0  0  0  0  0  0  0  0
    3.2467    2.7750    0.0000 C   0  0  0  0  0  0  0  0  0  0  0  0
    3.5081    1.2979    0.0000 C   0  0  0  0  0  0  0  0  0  0  0  0
    4.9180    0.7858    0.0000 C   0  0  0  0  0  0  0  0  0  0  0  0
    6.0664    1.7508    0.0000 C   0  0  0  0  0  0  0  0  0  0  0  0
    7.4763    1.2386    0.0000 C   0  0  0  0  0  0  0  0  0  0  0  0
    8.6247    2.2036    0.0000 O   0  0  0  0  0  0  0  0  0  0  0  0
    7.7377   -0.2384    0.0000 C   0  0  0  0  0  0  0  0  0  0  0  0
    6.5893   -1.2033    0.0000 C   0  0  0  0  0  0  0  0  0  0  0  0
    6.8507   -2.6804    0.0000 C   0  0  0  0  0  0  0  0  0  0  0  0
    8.2606   -3.1925    0.0000 C   0  0  0  0  0  0  0  0  0  0  0  0
    8.5220   -4.6695    0.0000 N   0  0  0  0  0  4  0  0  0  0  0  0
    9.9319   -5.1817    0.0000 O   0  0  0  0  0  0  0  0  0  0  0  0
    7.3735   -5.6345    0.0000 O   0  0  0  0  0  1  0  0  0  0  0  0
    9.4090   -2.2276    0.0000 C   0  0  0  0  0  0  0  0  0  0  0  0
    9.1476   -0.7505    0.0000 C   0  0  0  0  0  0  0  0  0  0  0  0
    5.8050    3.2278    0.0000 C   0  0  0  0  0  0  0  0  0  0  0  0
    4.3951    3.7399    0.0000 C   0  0  0  0  0  0  0  0  0  0  0  0
   -4.1669   -0.0605    0.0000 C   0  0  0  0  0  0  0  0  0  0  0  0
   -5.3153   -1.0254    0.0000 C   0  0  0  0  0  0  0  0  0  0  0  0
  1  2  3  0
  2  3  1  0
  3  4  1  0
  4  5  1  0
  5  6  1  0
  6  7  1  0
  7  8  1  0
  8  9  1  0
  9 10  1  0
 10 11  1  0
 11 12  1  0
 12 13  1  0
 13 14  1  0
 14 15  1  0
 15 16  1  0
 16 17  2  0
 16 18  1  0
 18 19  2  0
 19 20  1  0
 20 21  2  0
 21 22  1  0
 22 23  2  0
 22 24  1  0
 24 25  2  0
 25 26  1  0
 26 27  2  0
 27 28  1  0
 28 29  2  0
 28 30  1  0
 27 31  1  0
 31 32  2  0
 21 33  1  0
 33 34  2  0
 11 35  1  0
 35 36  1  0
 36  8  1  0
 34 18  1  0
 32 24  1  0
M  CHG  2  28   1  30  -1
M  END
>  <Ki>  (230) 
60.14

>  <database>  (230) 
SRSLDB

$$$$

     RDKit          2D

 23 28  0  0  0  0  0  0  0  0999 V2000
   -0.2100   -3.2831    0.0000 C   0  0  0  0  0  0  0  0  0  0  0  0
   -0.2895   -1.7852    0.0000 N   0  0  0  0  0  0  0  0  0  0  0  0
    0.9680   -0.9675    0.0000 C   0  0  0  0  0  0  0  0  0  0  0  0
    2.3050   -1.6476    0.0000 C   0  0  0  0  0  0  0  0  0  0  0  0
    3.5625   -0.8299    0.0000 C   0  0  0  0  0  0  0  0  0  0  0  0
    4.8994   -1.5101    0.0000 C   0  0  0  0  0  0  0  0  0  0  0  0
    6.1569   -0.6923    0.0000 C   0  0  0  0  0  0  0  0  0  0  0  0
    6.0775    0.8056    0.0000 C   0  0  0  0  0  0  0  0  0  0  0  0
    4.7406    1.4857    0.0000 C   0  0  0  0  0  0  0  0  0  0  0  0
    4.6611    2.9836    0.0000 F   0  0  0  0  0  0  0  0  0  0  0  0
    3.4830    0.6680    0.0000 C   0  0  0  0  0  0  0  0  0  0  0  0
   -2.0007    0.2440    0.0000 C   0  0  0  0  0  0  0  0  0  0  0  0
   -2.9625   -1.7869    0.0000 C   0  0  0  0  0  0  0  0  0  0  0  0
   -1.9025   -0.7255    0.0000 C   0  0  0  0  0  0  0  0  0  0  0  0
   -3.3839   -0.9611    0.0000 C   0  0  0  0  0  0  0  0  0  0  0  0
   -4.0657    0.3750    0.0000 C   0  0  0  0  0  0  0  0  0  0  0  0
   -4.2994   -1.1067    0.0000 C   0  0  0  0  0  0  0  0  0  0  0  0
   -3.8796    0.6205    0.0000 C   0  0  0  0  0  0  0  0  0  0  0  0
   -5.8719    1.0549    0.0000 O   0  0  0  0  0  0  0  0  0  0  0  0
   -2.3255    2.7732    0.0000 C   0  0  0  0  0  0  0  0  0  0  0  0
   -3.0057    1.4363    0.0000 C   0  0  0  0  0  0  0  0  0  0  0  0
   -1.6687    0.7561    0.0000 C   0  0  0  0  0  0  0  0  0  0  0  0
   -0.9886    2.0931    0.0000 C   0  0  0  0  0  0  0  0  0  0  0  0
  1  2  1  0
  2  3  1  0
  3  4  1  0
  4  5  1  0
  5  6  2  0
  6  7  1  0
  7  8  2  0
  8  9  1  0
  9 10  1  0
  9 11  2  0
 12  2  1  6
 12 13  1  0
 13 14  1  0
 14 15  1  0
 15 16  1  0
 16 17  1  0
 17 18  1  0
 18 19  2  0
 18 20  1  0
 20 21  1  0
 21 22  1  0
 22 23  1  0
 11  5  1  0
 23 12  1  0
 17 13  1  0
 23 20  1  0
 22 14  1  0
 21 16  1  0
M  END
>  <ChemBL_ID>  (231) 
CHEMBL2432052

>  <Ki>  (231) 
55.0

>  <database>  (231) 
SRSLDB

$$$$

     RDKit          2D

 22 28  0  0  0  0  0  0  0  0999 V2000
    6.1362   -2.8143    0.0000 C   0  0  0  0  0  0  0  0  0  0  0  0
    6.2238   -1.3168    0.0000 O   0  0  0  0  0  0  0  0  0  0  0  0
    4.9709   -0.4922    0.0000 C   0  0  0  0  0  0  0  0  0  0  0  0
    3.6302   -1.1650    0.0000 C   0  0  0  0  0  0  0  0  0  0  0  0
    2.3772   -0.3403    0.0000 C   0  0  0  0  0  0  0  0  0  0  0  0
    2.4649    1.1571    0.0000 C   0  0  0  0  0  0  0  0  0  0  0  0
    1.2119    1.9818    0.0000 C   0  0  0  0  0  0  0  0  0  0  0  0
   -0.1287    1.3090    0.0000 N   0  0  0  0  0  0  0  0  0  0  0  0
   -0.3725   -0.1711    0.0000 C   0  0  0  0  0  0  0  0  0  0  0  0
   -1.0616   -1.5034    0.0000 C   0  0  0  0  0  0  0  0  0  0  0  0
   -4.2632   -2.1236    0.0000 C   0  0  0  0  0  0  0  0  0  0  0  0
   -5.5955   -1.4344    0.0000 C   0  0  0  0  0  0  0  0  0  0  0  0
   -5.3518    0.0456    0.0000 C   0  0  0  0  0  0  0  0  0  0  0  0
   -3.8688    0.2712    0.0000 C   0  0  0  0  0  0  0  0  0  0  0  0
   -3.1961   -1.0694    0.0000 C   0  0  0  0  0  0  0  0  0  0  0  0
   -1.8554   -0.3967    0.0000 C   0  0  0  0  0  0  0  0  0  0  0  0
   -2.5282    0.9440    0.0000 C   0  0  0  0  0  0  0  0  0  0  0  0
   -1.4610    1.9981    0.0000 C   0  0  0  0  0  0  0  0  0  0  0  0
   -1.6866    3.4811    0.0000 O   0  0  0  0  0  0  0  0  0  0  0  0
   -4.5098   -1.1958    0.0000 C   0  0  0  0  0  0  0  0  0  0  0  0
    3.8056    1.8299    0.0000 C   0  0  0  0  0  0  0  0  0  0  0  0
    5.0585    1.0052    0.0000 C   0  0  0  0  0  0  0  0  0  0  0  0
  1  2  1  0
  2  3  1  0
  3  4  2  0
  4  5  1  0
  5  6  2  0
  6  7  1  0
  7  8  1  0
  8  9  1  0
  9 10  1  0
 10 11  1  0
 11 12  1  0
 12 13  1  0
 13 14  1  0
 14 15  1  0
 15 16  1  0
 16 17  1  0
 17 18  1  0
 18 19  1  0
 18 20  1  0
  6 21  1  0
 21 22  2  0
 22  3  1  0
 18  8  1  0
 16  9  1  0
 20 10  1  0
 15 11  1  0
 20 13  1  0
 17 14  1  0
M  END
>  <ChemBL_ID>  (232) 
CHEMBL2205825

>  <Ki>  (232) 
27.3

>  <database>  (232) 
SRSLDB

$$$$

     RDKit          2D

 32 36  0  0  0  0  0  0  0  0999 V2000
   -8.0887   -2.4713    0.0000 C   0  0  0  0  0  0  0  0  0  0  0  0
   -6.6491   -2.8926    0.0000 O   0  0  0  0  0  0  0  0  0  0  0  0
   -5.5644   -1.8566    0.0000 C   0  0  0  0  0  0  0  0  0  0  0  0
   -5.9193   -0.3992    0.0000 C   0  0  0  0  0  0  0  0  0  0  0  0
   -4.8346    0.6369    0.0000 C   0  0  0  0  0  0  0  0  0  0  0  0
   -3.3950    0.2156    0.0000 C   0  0  0  0  0  0  0  0  0  0  0  0
   -3.0401   -1.2418    0.0000 C   0  0  0  0  0  0  0  0  0  0  0  0
   -4.1248   -2.2779    0.0000 C   0  0  0  0  0  0  0  0  0  0  0  0
   -3.7699   -3.7353    0.0000 O   0  0  0  0  0  0  0  0  0  0  0  0
   -2.3303   -4.1567    0.0000 C   0  0  0  0  0  0  0  0  0  0  0  0
   -2.3103    1.2516    0.0000 C   0  0  0  0  0  0  0  0  0  0  0  0
   -2.6652    2.7090    0.0000 N   0  0  0  0  0  0  0  0  0  0  0  0
   -1.5805    3.7451    0.0000 C   0  0  0  0  0  0  0  0  0  0  0  0
   -0.1409    3.3238    0.0000 C   0  0  0  0  0  0  0  0  0  0  0  0
    0.2140    1.8664    0.0000 C   0  0  0  0  0  0  0  0  0  0  0  0
    1.6536    1.4450    0.0000 C   0  0  0  0  0  0  0  0  0  0  0  0
    2.7383    2.4811    0.0000 N   0  0  0  0  0  0  0  0  0  0  0  0
    4.1779    2.0597    0.0000 C   0  0  0  0  0  0  0  0  0  0  0  0
    5.2626    3.0958    0.0000 O   0  0  0  0  0  0  0  0  0  0  0  0
    4.5328    0.6023    0.0000 C   0  0  0  0  0  0  0  0  0  0  0  0
    3.5624   -0.5414    0.0000 C   0  0  0  0  0  0  0  0  0  0  0  0
    4.3503   -1.8178    0.0000 C   0  0  0  0  0  0  0  0  0  0  0  0
    3.9289   -3.2575    0.0000 C   0  0  0  0  0  0  0  0  0  0  0  0
    4.9650   -4.3422    0.0000 C   0  0  0  0  0  0  0  0  0  0  0  0
    6.4224   -3.9872    0.0000 C   0  0  0  0  0  0  0  0  0  0  0  0
    6.8437   -2.5476    0.0000 C   0  0  0  0  0  0  0  0  0  0  0  0
    5.8077   -1.4629    0.0000 C   0  0  0  0  0  0  0  0  0  0  0  0
    5.9205    0.0328    0.0000 O   0  0  0  0  0  0  0  0  0  0  0  0
    2.3834    3.9385    0.0000 C   0  0  0  0  0  0  0  0  0  0  0  0
    0.9438    4.3598    0.0000 C   0  0  0  0  0  0  0  0  0  0  0  0
   -4.1048    3.1304    0.0000 C   0  0  0  0  0  0  0  0  0  0  0  0
   -5.1895    2.0943    0.0000 C   0  0  0  0  0  0  0  0  0  0  0  0
  1  2  1  0
  2  3  1  0
  3  4  2  0
  4  5  1  0
  5  6  2  0
  6  7  1  0
  7  8  2  0
  8  9  1  0
  9 10  1  0
  6 11  1  0
 11 12  1  0
 12 13  1  0
 13 14  1  0
 14 15  1  0
 15 16  1  0
 16 17  1  0
 17 18  1  0
 18 19  2  0
 18 20  1  0
 20 21  2  0
 21 22  1  0
 22 23  2  0
 23 24  1  0
 24 25  2  0
 25 26  1  0
 26 27  2  0
 27 28  1  0
 17 29  1  0
 29 30  1  0
 12 31  1  0
 31 32  1  0
  8  3  1  0
 30 14  1  0
 32  5  1  0
 28 20  1  0
 27 22  1  0
M  END
>  <Ki>  (233) 
44.0

>  <database>  (233) 
SRSLDB

$$$$

     RDKit          2D

 45 50  0  0  0  0  0  0  0  0999 V2000
  -16.1673    1.8406    0.0000 O   0  0  0  0  0  0  0  0  0  0  0  0
  -14.8328    2.5256    0.0000 N   0  0  0  0  0  4  0  0  0  0  0  0
  -14.7588    4.0238    0.0000 O   0  0  0  0  0  1  0  0  0  0  0  0
  -13.5723    1.7125    0.0000 C   0  0  0  0  0  0  0  0  0  0  0  0
  -12.2379    2.3975    0.0000 C   0  0  0  0  0  0  0  0  0  0  0  0
  -10.9774    1.5843    0.0000 C   0  0  0  0  0  0  0  0  0  0  0  0
  -11.0514    0.0862    0.0000 C   0  0  0  0  0  0  0  0  0  0  0  0
   -9.7909   -0.7270    0.0000 N   0  0  0  0  0  0  0  0  0  0  0  0
   -8.4565   -0.0420    0.0000 C   0  0  0  0  0  0  0  0  0  0  0  0
   -7.1960   -0.8551    0.0000 C   0  0  0  0  0  0  0  0  0  0  0  0
   -5.8616   -0.1701    0.0000 C   0  0  0  0  0  0  0  0  0  0  0  0
   -4.6011   -0.9833    0.0000 C   0  0  0  0  0  0  0  0  0  0  0  0
   -3.2667   -0.2983    0.0000 C   0  0  0  0  0  0  0  0  0  0  0  0
   -2.0062   -1.1114    0.0000 C   0  0  0  0  0  0  0  0  0  0  0  0
   -0.6718   -0.4264    0.0000 O   0  0  0  0  0  0  0  0  0  0  0  0
    0.5887   -1.2395    0.0000 C   0  0  0  0  0  0  0  0  0  0  0  0
    0.5147   -2.7377    0.0000 C   0  0  0  0  0  0  0  0  0  0  0  0
    1.7752   -3.5509    0.0000 C   0  0  0  0  0  0  0  0  0  0  0  0
    3.1097   -2.8659    0.0000 C   0  0  0  0  0  0  0  0  0  0  0  0
    3.1836   -1.3677    0.0000 C   0  0  0  0  0  0  0  0  0  0  0  0
    1.9232   -0.5545    0.0000 C   0  0  0  0  0  0  0  0  0  0  0  0
    1.9971    0.9436    0.0000 C   0  0  0  0  0  0  0  0  0  0  0  0
    3.3316    1.6287    0.0000 C   0  0  0  0  0  0  0  0  0  0  0  0
    4.5921    0.8155    0.0000 C   0  0  0  0  0  0  0  0  0  0  0  0
    4.5181   -0.6827    0.0000 C   0  0  0  0  0  0  0  0  0  0  0  0
    5.7785   -1.4958    0.0000 C   0  0  0  0  0  0  0  0  0  0  0  0
    7.1130   -0.8108    0.0000 C   0  0  0  0  0  0  0  0  0  0  0  0
    8.3735   -1.6240    0.0000 C   0  0  0  0  0  0  0  0  0  0  0  0
    9.7079   -0.9389    0.0000 N   0  0  0  0  0  0  0  0  0  0  0  0
   10.9684   -1.7521    0.0000 C   0  0  0  0  0  0  0  0  0  0  0  0
   12.3028   -1.0671    0.0000 C   0  0  0  0  0  0  0  0  0  0  0  0
   12.3768    0.4311    0.0000 N   0  0  0  0  0  0  0  0  0  0  0  0
   13.7112    1.1161    0.0000 C   0  0  0  0  0  0  0  0  0  0  0  0
   14.9717    0.3030    0.0000 C   0  0  0  0  0  0  0  0  0  0  0  0
   16.3062    0.9880    0.0000 C   0  0  0  0  0  0  0  0  0  0  0  0
   16.3801    2.4862    0.0000 C   0  0  0  0  0  0  0  0  0  0  0  0
   15.1197    3.2993    0.0000 C   0  0  0  0  0  0  0  0  0  0  0  0
   13.7852    2.6143    0.0000 C   0  0  0  0  0  0  0  0  0  0  0  0
   11.1163    1.2443    0.0000 C   0  0  0  0  0  0  0  0  0  0  0  0
    9.7819    0.5592    0.0000 C   0  0  0  0  0  0  0  0  0  0  0  0
  -12.3859   -0.5989    0.0000 C   0  0  0  0  0  0  0  0  0  0  0  0
  -12.7697   -2.0489    0.0000 N   0  0  0  0  0  0  0  0  0  0  0  0
  -14.2674   -2.1319    0.0000 O   0  0  0  0  0  0  0  0  0  0  0  0
  -14.8092   -0.7332    0.0000 N   0  0  0  0  0  0  0  0  0  0  0  0
  -13.6463    0.2143    0.0000 C   0  0  0  0  0  0  0  0  0  0  0  0
  1  2  2  0
  2  3  1  0
  2  4  1  0
  4  5  2  0
  5  6  1  0
  6  7  2  0
  7  8  1  0
  8  9  1  0
  9 10  1  0
 10 11  1  0
 11 12  1  0
 12 13  1  0
 13 14  1  0
 14 15  1  0
 15 16  1  0
 16 17  2  0
 17 18  1  0
 18 19  2  0
 19 20  1  0
 20 21  2  0
 21 22  1  0
 22 23  1  0
 23 24  1  0
 24 25  1  0
 25 26  1  0
 26 27  1  0
 27 28  1  0
 28 29  1  0
 29 30  1  0
 30 31  1  0
 31 32  1  0
 32 33  1  0
 33 34  1  0
 34 35  1  0
 35 36  1  0
 36 37  1  0
 37 38  1  0
 32 39  1  0
 39 40  1  0
  7 41  1  0
 41 42  2  0
 42 43  1  0
 43 44  1  0
 44 45  2  0
 45  4  1  0
 21 16  1  0
 40 29  1  0
 45 41  1  0
 25 20  1  0
 38 33  1  0
M  CHG  2   2   1   3  -1
M  END
>  <ChemBL_ID>  (234) 
CHEMBL1822597

>  <Ki>  (234) 
10.8

>  <database>  (234) 
SRSLDB

$$$$

     RDKit          2D

 25 28  0  0  0  0  0  0  0  0999 V2000
   -5.0909   -2.3885    0.0000 Cl  0  0  0  0  0  0  0  0  0  0  0  0
   -5.8137   -1.0741    0.0000 C   0  0  0  0  0  0  0  0  0  0  0  0
   -7.3133   -1.0428    0.0000 C   0  0  0  0  0  0  0  0  0  0  0  0
   -8.0361    0.2716    0.0000 C   0  0  0  0  0  0  0  0  0  0  0  0
   -7.2592    1.5547    0.0000 C   0  0  0  0  0  0  0  0  0  0  0  0
   -5.7595    1.5234    0.0000 C   0  0  0  0  0  0  0  0  0  0  0  0
   -5.0367    0.2090    0.0000 C   0  0  0  0  0  0  0  0  0  0  0  0
   -3.5371    0.1777    0.0000 C   0  0  0  0  0  0  0  0  0  0  0  0
   -2.8143   -1.1367    0.0000 C   0  0  0  0  0  0  0  0  0  0  0  0
   -1.3146   -1.1680    0.0000 C   0  0  0  0  0  0  0  0  0  0  0  0
   -0.5377    0.1152    0.0000 C   0  0  0  0  0  0  0  0  0  0  0  0
    0.9620    0.0839    0.0000 N   0  0  0  0  0  0  0  0  0  0  0  0
    1.6847   -1.2305    0.0000 C   0  0  0  0  0  0  0  0  0  0  0  0
    3.1844   -1.2618    0.0000 C   0  0  0  0  0  0  0  0  0  0  0  0
    3.9613    0.0213    0.0000 N   0  0  0  0  0  0  0  0  0  0  0  0
    5.4610   -0.0100    0.0000 C   0  0  0  0  0  0  0  0  0  0  0  0
    6.1837   -1.3244    0.0000 C   0  0  0  0  0  0  0  0  0  0  0  0
    7.6834   -1.3556    0.0000 C   0  0  0  0  0  0  0  0  0  0  0  0
    8.4603   -0.0725    0.0000 C   0  0  0  0  0  0  0  0  0  0  0  0
    7.7376    1.2419    0.0000 C   0  0  0  0  0  0  0  0  0  0  0  0
    6.2379    1.2731    0.0000 N   0  0  0  0  0  0  0  0  0  0  0  0
    3.2386    1.3357    0.0000 C   0  0  0  0  0  0  0  0  0  0  0  0
    1.7389    1.3670    0.0000 C   0  0  0  0  0  0  0  0  0  0  0  0
   -1.2605    1.4296    0.0000 C   0  0  0  0  0  0  0  0  0  0  0  0
   -2.7601    1.4608    0.0000 C   0  0  0  0  0  0  0  0  0  0  0  0
  1  2  1  0
  2  3  2  0
  3  4  1  0
  4  5  2  0
  5  6  1  0
  6  7  2  0
  8  7  1  6
  8  9  1  0
  9 10  1  0
 10 11  1  0
 11 12  1  6
 12 13  1  0
 13 14  1  0
 14 15  1  0
 15 16  1  0
 16 17  2  0
 17 18  1  0
 18 19  2  0
 19 20  1  0
 20 21  2  0
 15 22  1  0
 22 23  1  0
 11 24  1  0
 24 25  1  0
  7  2  1  0
 25  8  1  0
 23 12  1  0
 21 16  1  0
M  END
>  <ChemBL_ID>  (235) 
CHEMBL458802

>  <Ki>  (235) 
150.0

>  <database>  (235) 
SRSLDB

$$$$

     RDKit          2D

 41 45  0  0  0  0  0  0  0  0999 V2000
  -11.3651   -2.0524    0.0000 C   0  0  0  0  0  0  0  0  0  0  0  0
  -10.0078   -2.6909    0.0000 O   0  0  0  0  0  0  0  0  0  0  0  0
   -8.7762   -1.8348    0.0000 C   0  0  0  0  0  0  0  0  0  0  0  0
   -8.9018   -0.3400    0.0000 C   0  0  0  0  0  0  0  0  0  0  0  0
   -7.6702    0.5162    0.0000 C   0  0  0  0  0  0  0  0  0  0  0  0
   -6.3129   -0.1224    0.0000 C   0  0  0  0  0  0  0  0  0  0  0  0
   -6.1872   -1.6171    0.0000 C   0  0  0  0  0  0  0  0  0  0  0  0
   -7.4189   -2.4733    0.0000 C   0  0  0  0  0  0  0  0  0  0  0  0
   -7.2932   -3.9680    0.0000 O   0  0  0  0  0  0  0  0  0  0  0  0
   -5.9359   -4.6066    0.0000 C   0  0  0  0  0  0  0  0  0  0  0  0
   -5.0812    0.7338    0.0000 C   0  0  0  0  0  0  0  0  0  0  0  0
   -5.2069    2.2285    0.0000 N   0  0  0  0  0  0  0  0  0  0  0  0
   -3.9752    3.0847    0.0000 C   0  0  0  0  0  0  0  0  0  0  0  0
   -2.6179    2.4462    0.0000 C   0  0  0  0  0  0  0  0  0  0  0  0
   -1.3863    3.3023    0.0000 C   0  0  0  0  0  0  0  0  0  0  0  0
   -0.0290    2.6638    0.0000 C   0  0  0  0  0  0  0  0  0  0  0  0
    1.2026    3.5200    0.0000 N   0  0  0  0  0  0  0  0  0  0  0  0
    2.5599    2.8814    0.0000 C   0  0  0  0  0  0  0  0  0  0  0  0
    2.6856    1.3867    0.0000 C   0  0  0  0  0  0  0  0  0  0  0  0
    4.0429    0.7481    0.0000 C   0  0  0  0  0  0  0  0  0  0  0  0
    4.1685   -0.7466    0.0000 N   0  0  0  0  0  0  0  0  0  0  0  0
    3.0331   -1.7268    0.0000 N   0  0  0  0  0  0  0  0  0  0  0  0
    3.6145   -3.1096    0.0000 C   0  0  0  0  0  0  0  0  0  0  0  0
    2.8376   -4.3927    0.0000 C   0  0  0  0  0  0  0  0  0  0  0  0
    5.1093   -2.9839    0.0000 C   0  0  0  0  0  0  0  0  0  0  0  0
    5.4517   -1.5235    0.0000 C   0  0  0  0  0  0  0  0  0  0  0  0
    6.8876   -1.0898    0.0000 C   0  0  0  0  0  0  0  0  0  0  0  0
    7.9811   -2.1166    0.0000 C   0  0  0  0  0  0  0  0  0  0  0  0
    9.3599   -2.7073    0.0000 C   0  0  0  0  0  0  0  0  0  0  0  0
    8.8024   -0.8613    0.0000 C   0  0  0  0  0  0  0  0  0  0  0  0
    7.6387   -3.5770    0.0000 C   0  0  0  0  0  0  0  0  0  0  0  0
    6.2028   -4.0106    0.0000 C   0  0  0  0  0  0  0  0  0  0  0  0
    5.8604   -5.4710    0.0000 O   0  0  0  0  0  0  0  0  0  0  0  0
    5.2745    1.6043    0.0000 C   0  0  0  0  0  0  0  0  0  0  0  0
    5.1489    3.0991    0.0000 C   0  0  0  0  0  0  0  0  0  0  0  0
    3.7916    3.7376    0.0000 C   0  0  0  0  0  0  0  0  0  0  0  0
    3.6659    5.2323    0.0000 C   0  0  0  0  0  0  0  0  0  0  0  0
    4.8976    6.0885    0.0000 N   0  0  0  0  0  0  0  0  0  0  0  0
    2.3086    5.8709    0.0000 O   0  0  0  0  0  0  0  0  0  0  0  0
   -6.5642    2.8671    0.0000 C   0  0  0  0  0  0  0  0  0  0  0  0
   -7.7958    2.0109    0.0000 C   0  0  0  0  0  0  0  0  0  0  0  0
  1  2  1  0
  2  3  1  0
  3  4  2  0
  4  5  1  0
  5  6  2  0
  6  7  1  0
  7  8  2  0
  8  9  1  0
  9 10  1  0
  6 11  1  0
 11 12  1  0
 12 13  1  0
 13 14  1  0
 14 15  1  0
 15 16  1  0
 16 17  1  0
 17 18  1  0
 18 19  2  0
 19 20  1  0
 20 21  1  0
 21 22  1  0
 22 23  2  0
 23 24  1  0
 23 25  1  0
 25 26  2  0
 26 27  1  0
 27 28  1  0
 28 29  1  0
 28 30  1  0
 28 31  1  0
 31 32  1  0
 32 33  2  0
 20 34  2  0
 34 35  1  0
 35 36  2  0
 36 37  1  0
 37 38  1  0
 37 39  2  0
 12 40  1  0
 40 41  1  0
  8  3  1  0
 36 18  1  0
 41  5  1  0
 26 21  1  0
 32 25  1  0
M  END
>  <Ki>  (236) 
142.0

>  <database>  (236) 
SRSLDB

$$$$

     RDKit          2D

 21 23  0  0  0  0  0  0  0  0999 V2000
   -5.7326    2.4872    0.0000 C   0  0  0  0  0  0  0  0  0  0  0  0
   -5.2040    1.0834    0.0000 C   0  0  0  0  0  0  0  0  0  0  0  0
   -6.1554   -0.0763    0.0000 C   0  0  0  0  0  0  0  0  0  0  0  0
   -3.7240    0.8393    0.0000 C   0  0  0  0  0  0  0  0  0  0  0  0
   -3.1954   -0.5645    0.0000 C   0  0  0  0  0  0  0  0  0  0  0  0
   -1.7154   -0.8086    0.0000 N   0  0  0  0  0  0  0  0  0  0  0  0
   -1.1868   -2.2124    0.0000 C   0  0  0  0  0  0  0  0  0  0  0  0
    0.2932   -2.4565    0.0000 C   0  0  0  0  0  0  0  0  0  0  0  0
    1.2446   -1.2968    0.0000 C   0  0  0  0  0  0  0  0  0  0  0  0
    1.7732   -2.7006    0.0000 C   0  0  0  0  0  0  0  0  0  0  0  0
    2.1960   -0.1371    0.0000 C   0  0  0  0  0  0  0  0  0  0  0  0
    3.6760   -0.3812    0.0000 C   0  0  0  0  0  0  0  0  0  0  0  0
    4.6274    0.7784    0.0000 C   0  0  0  0  0  0  0  0  0  0  0  0
    6.1074    0.5343    0.0000 O   0  0  0  0  0  0  0  0  0  0  0  0
    4.0988    2.1822    0.0000 C   0  0  0  0  0  0  0  0  0  0  0  0
    2.6188    2.4263    0.0000 C   0  0  0  0  0  0  0  0  0  0  0  0
    1.6674    1.2666    0.0000 C   0  0  0  0  0  0  0  0  0  0  0  0
    0.1874    1.5107    0.0000 C   0  0  0  0  0  0  0  0  0  0  0  0
   -0.7640    0.3511    0.0000 C   0  0  0  0  0  0  0  0  0  0  0  0
   -0.2354   -1.0527    0.0000 C   0  0  0  0  0  0  0  0  0  0  0  0
   -0.5769   -1.7730    0.0000 C   0  0  0  0  0  0  0  0  0  0  0  0
  1  2  1  0
  2  3  1  0
  2  4  2  0
  4  5  1  0
  5  6  1  0
  6  7  1  0
  7  8  1  0
  8  9  1  0
  9 10  1  6
  9 11  1  0
 11 12  2  0
 12 13  1  0
 13 14  1  0
 13 15  2  0
 15 16  1  0
 16 17  2  0
 17 18  1  0
 19 18  1  1
 19 20  1  0
 20 21  1  6
 19  6  1  0
 20  9  1  0
 17 11  1  0
M  END
>  <ChemBL_ID>  (237) 
CHEMBL60542

>  <Compound_Key>  (237) 
(+)-Pentazocine

>  <Ki>  (237) 
1540.0

>  <database>  (237) 
CHEMBL

>  <Assay_ChEMBL_ID>  (237) 
CHEMBL805747

>  <Document_ChEMBL_ID>  (237) 
CHEMBL1131008

$$$$

     RDKit          2D

 31 35  0  0  0  0  0  0  0  0999 V2000
  -10.6323   -0.4158    0.0000 C   0  0  0  0  0  0  0  0  0  0  0  0
   -9.2292   -0.9462    0.0000 O   0  0  0  0  0  0  0  0  0  0  0  0
   -8.0683    0.0037    0.0000 C   0  0  0  0  0  0  0  0  0  0  0  0
   -8.3105    1.4840    0.0000 C   0  0  0  0  0  0  0  0  0  0  0  0
   -7.1496    2.4339    0.0000 C   0  0  0  0  0  0  0  0  0  0  0  0
   -5.7465    1.9035    0.0000 C   0  0  0  0  0  0  0  0  0  0  0  0
   -5.5043    0.4232    0.0000 C   0  0  0  0  0  0  0  0  0  0  0  0
   -6.6652   -0.5267    0.0000 C   0  0  0  0  0  0  0  0  0  0  0  0
   -6.4230   -2.0070    0.0000 C   0  0  0  0  0  0  0  0  0  0  0  0
   -5.0199   -2.5374    0.0000 C   0  0  0  0  0  0  0  0  0  0  0  0
   -3.8590   -1.5875    0.0000 C   0  0  0  0  0  0  0  0  0  0  0  0
   -4.1012   -0.1072    0.0000 C   0  0  0  0  0  0  0  0  0  0  0  0
   -2.9404    0.8427    0.0000 C   0  0  0  0  0  0  0  0  0  0  0  0
   -1.5373    0.3123    0.0000 C   0  0  0  0  0  0  0  0  0  0  0  0
   -0.3764    1.2622    0.0000 C   0  0  0  0  0  0  0  0  0  0  0  0
    1.0267    0.7318    0.0000 N   0  0  0  0  0  0  0  0  0  0  0  0
    1.2689   -0.7485    0.0000 C   0  0  0  0  0  0  0  0  0  0  0  0
    2.6720   -1.2789    0.0000 C   0  0  0  0  0  0  0  0  0  0  0  0
    3.8329   -0.3290    0.0000 N   0  0  0  0  0  0  0  0  0  0  0  0
    5.2360   -0.8594    0.0000 C   0  0  0  0  0  0  0  0  0  0  0  0
    5.4782   -2.3397    0.0000 C   0  0  0  0  0  0  0  0  0  0  0  0
    6.8813   -2.8701    0.0000 C   0  0  0  0  0  0  0  0  0  0  0  0
    8.0422   -1.9202    0.0000 C   0  0  0  0  0  0  0  0  0  0  0  0
    7.8000   -0.4399    0.0000 C   0  0  0  0  0  0  0  0  0  0  0  0
    8.9609    0.5100    0.0000 C   0  0  0  0  0  0  0  0  0  0  0  0
    8.7187    1.9904    0.0000 C   0  0  0  0  0  0  0  0  0  0  0  0
    7.3156    2.5208    0.0000 C   0  0  0  0  0  0  0  0  0  0  0  0
    6.1547    1.5709    0.0000 C   0  0  0  0  0  0  0  0  0  0  0  0
    6.3969    0.0905    0.0000 C   0  0  0  0  0  0  0  0  0  0  0  0
    3.5907    1.1513    0.0000 C   0  0  0  0  0  0  0  0  0  0  0  0
    2.1876    1.6818    0.0000 C   0  0  0  0  0  0  0  0  0  0  0  0
  1  2  1  0
  2  3  1  0
  3  4  2  0
  4  5  1  0
  5  6  2  0
  6  7  1  0
  7  8  2  0
  8  9  1  0
  9 10  1  0
 10 11  1  0
 11 12  1  0
 12 13  1  0
 13 14  1  0
 14 15  1  0
 15 16  1  0
 16 17  1  0
 17 18  1  0
 18 19  1  0
 19 20  1  0
 20 21  2  0
 21 22  1  0
 22 23  2  0
 23 24  1  0
 24 25  2  0
 25 26  1  0
 26 27  2  0
 27 28  1  0
 28 29  2  0
 19 30  1  0
 30 31  1  0
  8  3  1  0
 31 16  1  0
 12  7  1  0
 29 20  1  0
 29 24  1  0
M  END
>  <Ki>  (238) 
353.0

>  <database>  (238) 
SRSLDB

$$$$

     RDKit          2D

 30 33  0  0  0  0  0  0  0  0999 V2000
    4.8770    3.9689    0.0000 C   0  0  0  0  0  0  0  0  0  0  0  0
    3.5794    3.2165    0.0000 O   0  0  0  0  0  0  0  0  0  0  0  0
    3.5823    1.7165    0.0000 C   0  0  0  0  0  0  0  0  0  0  0  0
    4.8828    0.9689    0.0000 C   0  0  0  0  0  0  0  0  0  0  0  0
    4.8856   -0.5311    0.0000 C   0  0  0  0  0  0  0  0  0  0  0  0
    3.5880   -1.2835    0.0000 C   0  0  0  0  0  0  0  0  0  0  0  0
    3.5909   -2.7835    0.0000 N   0  0  0  0  0  4  0  0  0  0  0  0
    2.2933   -3.5360    0.0000 O   0  0  0  0  0  0  0  0  0  0  0  0
    4.8913   -3.5311    0.0000 O   0  0  0  0  0  1  0  0  0  0  0  0
    2.2875   -0.5360    0.0000 C   0  0  0  0  0  0  0  0  0  0  0  0
    2.2847    0.9640    0.0000 C   0  0  0  0  0  0  0  0  0  0  0  0
    0.9842    1.7115    0.0000 N   0  0  0  0  0  0  0  0  0  0  0  0
   -0.3134    0.9590    0.0000 C   0  0  0  0  0  0  0  0  0  0  0  0
   -0.3105   -0.5410    0.0000 O   0  0  0  0  0  0  0  0  0  0  0  0
   -1.6139    1.7065    0.0000 O   0  0  0  0  0  0  0  0  0  0  0  0
   -2.9115    0.9541    0.0000 C   0  0  0  0  0  0  0  0  0  0  0  0
   -2.9086   -0.5459    0.0000 C   0  0  0  0  0  0  0  0  0  0  0  0
   -4.2062   -1.2984    0.0000 C   0  0  0  0  0  0  0  0  0  0  0  0
   -5.6728   -1.6131    0.0000 C   0  0  0  0  0  0  0  0  0  0  0  0
   -6.4253   -0.3155    0.0000 C   0  0  0  0  0  0  0  0  0  0  0  0
   -5.4237    0.8012    0.0000 C   0  0  0  0  0  0  0  0  0  0  0  0
   -4.2119    1.7016    0.0000 C   0  0  0  0  0  0  0  0  0  0  0  0
   -4.0523    0.1937    0.0000 N   0  0  0  0  0  0  0  0  0  0  0  0
   -2.7547    0.9461    0.0000 C   0  0  0  0  0  0  0  0  0  0  0  0
   -1.4542    0.1986    0.0000 C   0  0  0  0  0  0  0  0  0  0  0  0
   -1.4513   -1.3014    0.0000 C   0  0  0  0  0  0  0  0  0  0  0  0
   -0.1509   -2.0489    0.0000 C   0  0  0  0  0  0  0  0  0  0  0  0
    1.1467   -1.2964    0.0000 C   0  0  0  0  0  0  0  0  0  0  0  0
    1.1439    0.2036    0.0000 C   0  0  0  0  0  0  0  0  0  0  0  0
   -0.1566    0.9511    0.0000 C   0  0  0  0  0  0  0  0  0  0  0  0
  1  2  1  0
  2  3  1  0
  3  4  2  0
  4  5  1  0
  5  6  2  0
  6  7  1  0
  7  8  2  0
  7  9  1  0
  6 10  1  0
 10 11  2  0
 11 12  1  0
 12 13  1  0
 13 14  2  0
 13 15  1  0
 15 16  1  0
 16 17  1  0
 17 18  1  0
 18 19  1  0
 19 20  1  0
 20 21  1  0
 21 22  1  0
 21 23  1  0
 23 24  1  0
 24 25  1  0
 25 26  2  0
 26 27  1  0
 27 28  2  0
 28 29  1  0
 29 30  2  0
 11  3  1  0
 22 16  1  0
 30 25  1  0
 23 18  1  0
M  CHG  2   7   1   9  -1
M  END
>  <Ki>  (239) 
5.4

>  <database>  (239) 
SRSLDB

$$$$

     RDKit          2D

 22 28  0  0  0  0  0  0  0  0999 V2000
    6.1006    1.9599    0.0000 C   0  0  0  0  0  0  0  0  0  0  0  0
    4.6311    1.6590    0.0000 O   0  0  0  0  0  0  0  0  0  0  0  0
    4.1570    0.2359    0.0000 C   0  0  0  0  0  0  0  0  0  0  0  0
    5.1523   -0.8862    0.0000 C   0  0  0  0  0  0  0  0  0  0  0  0
    4.6782   -2.3093    0.0000 C   0  0  0  0  0  0  0  0  0  0  0  0
    3.2087   -2.6103    0.0000 C   0  0  0  0  0  0  0  0  0  0  0  0
    2.2133   -1.4881    0.0000 C   0  0  0  0  0  0  0  0  0  0  0  0
    2.6874   -0.0650    0.0000 C   0  0  0  0  0  0  0  0  0  0  0  0
    1.6921    1.0572    0.0000 C   0  0  0  0  0  0  0  0  0  0  0  0
    0.2226    0.7563    0.0000 N   0  0  0  0  0  0  0  0  0  0  0  0
   -0.3977   -0.6095    0.0000 C   0  0  0  0  0  0  0  0  0  0  0  0
   -1.4097   -1.7167    0.0000 C   0  0  0  0  0  0  0  0  0  0  0  0
   -4.6624   -1.4828    0.0000 C   0  0  0  0  0  0  0  0  0  0  0  0
   -5.7696   -0.4708    0.0000 C   0  0  0  0  0  0  0  0  0  0  0  0
   -5.1493    0.8950    0.0000 C   0  0  0  0  0  0  0  0  0  0  0  0
   -3.6587    0.7270    0.0000 C   0  0  0  0  0  0  0  0  0  0  0  0
   -3.3578   -0.7425    0.0000 C   0  0  0  0  0  0  0  0  0  0  0  0
   -1.8883   -0.4416    0.0000 C   0  0  0  0  0  0  0  0  0  0  0  0
   -2.1892    1.0280    0.0000 C   0  0  0  0  0  0  0  0  0  0  0  0
   -0.8846    1.7682    0.0000 C   0  0  0  0  0  0  0  0  0  0  0  0
   -0.7167    3.2588    0.0000 O   0  0  0  0  0  0  0  0  0  0  0  0
   -4.6592   -0.5227    0.0000 C   0  0  0  0  0  0  0  0  0  0  0  0
  1  2  1  0
  2  3  1  0
  3  4  2  0
  4  5  1  0
  5  6  2  0
  6  7  1  0
  7  8  2  0
  8  9  1  0
  9 10  1  0
 10 11  1  0
 11 12  1  0
 12 13  1  0
 13 14  1  0
 14 15  1  0
 15 16  1  0
 16 17  1  0
 17 18  1  0
 18 19  1  0
 19 20  1  0
 20 21  1  0
 20 22  1  0
  8  3  1  0
 20 10  1  0
 18 11  1  0
 22 12  1  0
 17 13  1  0
 22 15  1  0
 19 16  1  0
M  END
>  <ChemBL_ID>  (240) 
CHEMBL2205823

>  <Ki>  (240) 
27.3

>  <database>  (240) 
SRSLDB

$$$$

     RDKit          2D

 32 35  0  0  0  0  0  0  0  0999 V2000
  -10.4856    0.0701    0.0000 C   0  0  0  0  0  0  0  0  0  0  0  0
   -9.4400   -1.0054    0.0000 O   0  0  0  0  0  0  0  0  0  0  0  0
   -7.9858   -0.6376    0.0000 C   0  0  0  0  0  0  0  0  0  0  0  0
   -7.5772    0.8056    0.0000 C   0  0  0  0  0  0  0  0  0  0  0  0
   -6.1230    1.1734    0.0000 C   0  0  0  0  0  0  0  0  0  0  0  0
   -5.0774    0.0978    0.0000 C   0  0  0  0  0  0  0  0  0  0  0  0
   -5.4860   -1.3454    0.0000 C   0  0  0  0  0  0  0  0  0  0  0  0
   -6.9402   -1.7132    0.0000 C   0  0  0  0  0  0  0  0  0  0  0  0
   -7.3489   -3.1564    0.0000 O   0  0  0  0  0  0  0  0  0  0  0  0
   -6.3033   -4.2320    0.0000 C   0  0  0  0  0  0  0  0  0  0  0  0
   -3.6232    0.4656    0.0000 C   0  0  0  0  0  0  0  0  0  0  0  0
   -3.2145    1.9089    0.0000 N   0  0  0  0  0  0  0  0  0  0  0  0
   -1.7603    2.2766    0.0000 C   0  0  0  0  0  0  0  0  0  0  0  0
   -0.7147    1.2011    0.0000 C   0  0  0  0  0  0  0  0  0  0  0  0
    0.7395    1.5688    0.0000 C   0  0  0  0  0  0  0  0  0  0  0  0
    1.7851    0.4933    0.0000 N   0  0  0  0  0  0  0  0  0  0  0  0
    3.2393    0.8610    0.0000 C   0  0  0  0  0  0  0  0  0  0  0  0
    3.6480    2.3043    0.0000 O   0  0  0  0  0  0  0  0  0  0  0  0
    4.2849   -0.2145    0.0000 C   0  0  0  0  0  0  0  0  0  0  0  0
    3.8763   -1.6578    0.0000 C   0  0  0  0  0  0  0  0  0  0  0  0
    4.9219   -2.7333    0.0000 C   0  0  0  0  0  0  0  0  0  0  0  0
    6.3761   -2.3655    0.0000 C   0  0  0  0  0  0  0  0  0  0  0  0
    6.7847   -0.9223    0.0000 C   0  0  0  0  0  0  0  0  0  0  0  0
    8.2389   -0.5545    0.0000 C   0  0  0  0  0  0  0  0  0  0  0  0
    9.2845   -1.6301    0.0000 O   0  0  0  0  0  0  0  0  0  0  0  0
   10.7388   -1.2623    0.0000 C   0  0  0  0  0  0  0  0  0  0  0  0
    8.6476    0.8887    0.0000 C   0  0  0  0  0  0  0  0  0  0  0  0
    7.6020    1.9643    0.0000 C   0  0  0  0  0  0  0  0  0  0  0  0
    6.1478    1.5965    0.0000 C   0  0  0  0  0  0  0  0  0  0  0  0
    5.7391    0.1532    0.0000 C   0  0  0  0  0  0  0  0  0  0  0  0
   -4.2601    2.9844    0.0000 C   0  0  0  0  0  0  0  0  0  0  0  0
   -5.7143    2.6166    0.0000 C   0  0  0  0  0  0  0  0  0  0  0  0
  1  2  1  0
  2  3  1  0
  3  4  2  0
  4  5  1  0
  5  6  2  0
  6  7  1  0
  7  8  2  0
  8  9  1  0
  9 10  1  0
  6 11  1  0
 11 12  1  0
 12 13  1  0
 13 14  1  0
 14 15  1  0
 15 16  1  0
 16 17  1  0
 17 18  2  0
 17 19  1  0
 19 20  1  0
 20 21  1  0
 21 22  1  0
 22 23  1  0
 23 24  2  0
 24 25  1  0
 25 26  1  0
 24 27  1  0
 27 28  2  0
 28 29  1  0
 29 30  2  0
 12 31  1  0
 31 32  1  0
  8  3  1  0
 30 19  1  0
 32  5  1  0
 30 23  1  0
M  END
>  <ChemBL_ID>  (241) 
CHEMBL1851996

>  <Ki>  (241) 
21.1

>  <database>  (241) 
SRSLDB

$$$$

     RDKit          2D

 33 35  0  0  0  0  0  0  0  0999 V2000
   10.7345    1.8336    0.0000 C   0  0  0  0  0  0  0  0  0  0  0  0
    9.2965    2.2604    0.0000 O   0  0  0  0  0  0  0  0  0  0  0  0
    8.2079    1.2285    0.0000 C   0  0  0  0  0  0  0  0  0  0  0  0
    6.7699    1.6553    0.0000 C   0  0  0  0  0  0  0  0  0  0  0  0
    5.6813    0.6233    0.0000 C   0  0  0  0  0  0  0  0  0  0  0  0
    6.0307   -0.8354    0.0000 C   0  0  0  0  0  0  0  0  0  0  0  0
    7.4687   -1.2622    0.0000 C   0  0  0  0  0  0  0  0  0  0  0  0
    8.5573   -0.2303    0.0000 C   0  0  0  0  0  0  0  0  0  0  0  0
    9.9953   -0.6571    0.0000 O   0  0  0  0  0  0  0  0  0  0  0  0
   10.3446   -2.1158    0.0000 C   0  0  0  0  0  0  0  0  0  0  0  0
    5.1080   -2.0181    0.0000 C   0  0  0  0  0  0  0  0  0  0  0  0
    3.6081   -2.0341    0.0000 C   0  0  0  0  0  0  0  0  0  0  0  0
    2.6604   -0.8714    0.0000 N   0  0  0  0  0  0  0  0  0  0  0  0
    1.2016   -1.2207    0.0000 C   0  0  0  0  0  0  0  0  0  0  0  0
    0.1697   -0.1321    0.0000 C   0  0  0  0  0  0  0  0  0  0  0  0
   -1.2890   -0.4815    0.0000 C   0  0  0  0  0  0  0  0  0  0  0  0
   -2.3210    0.6071    0.0000 C   0  0  0  0  0  0  0  0  0  0  0  0
   -3.7797    0.2578    0.0000 N   0  0  0  0  0  0  0  0  0  0  0  0
   -4.8117    1.3464    0.0000 C   0  0  0  0  0  0  0  0  0  0  0  0
   -4.3849    2.7844    0.0000 O   0  0  0  0  0  0  0  0  0  0  0  0
   -6.2704    0.9970    0.0000 C   0  0  0  0  0  0  0  0  0  0  0  0
   -7.3023    2.0857    0.0000 C   0  0  0  0  0  0  0  0  0  0  0  0
   -8.7611    1.7363    0.0000 C   0  0  0  0  0  0  0  0  0  0  0  0
   -9.7930    2.8249    0.0000 Br  0  0  0  0  0  0  0  0  0  0  0  0
   -9.1879    0.2983    0.0000 C   0  0  0  0  0  0  0  0  0  0  0  0
   -8.1560   -0.7903    0.0000 C   0  0  0  0  0  0  0  0  0  0  0  0
   -8.5828   -2.2283    0.0000 O   0  0  0  0  0  0  0  0  0  0  0  0
  -10.0415   -2.5777    0.0000 C   0  0  0  0  0  0  0  0  0  0  0  0
   -6.6972   -0.4410    0.0000 C   0  0  0  0  0  0  0  0  0  0  0  0
   -5.6653   -1.5296    0.0000 O   0  0  0  0  0  0  0  0  0  0  0  0
   -6.0921   -2.9676    0.0000 C   0  0  0  0  0  0  0  0  0  0  0  0
    2.9785    0.5945    0.0000 C   0  0  0  0  0  0  0  0  0  0  0  0
    4.3230    1.2597    0.0000 C   0  0  0  0  0  0  0  0  0  0  0  0
  1  2  1  0
  2  3  1  0
  3  4  2  0
  4  5  1  0
  5  6  2  0
  6  7  1  0
  7  8  2  0
  8  9  1  0
  9 10  1  0
  6 11  1  0
 11 12  1  0
 12 13  1  0
 13 14  1  0
 14 15  1  0
 15 16  1  0
 16 17  1  0
 17 18  1  0
 18 19  1  0
 19 20  2  0
 19 21  1  0
 21 22  2  0
 22 23  1  0
 23 24  1  0
 23 25  2  0
 25 26  1  0
 26 27  1  0
 27 28  1  0
 26 29  2  0
 29 30  1  0
 30 31  1  0
 13 32  1  0
 32 33  1  0
  8  3  1  0
 29 21  1  0
 33  5  1  0
M  END
>  <ChemBL_ID>  (242) 
CHEMBL1682081

>  <Ki>  (242) 
734.0

>  <database>  (242) 
SRSLDB

$$$$

     RDKit          2D

 30 33  0  0  0  0  0  0  0  0999 V2000
   -5.6635   -3.3049    0.0000 C   0  0  0  0  0  0  0  0  0  0  0  0
   -4.2994   -2.6810    0.0000 O   0  0  0  0  0  0  0  0  0  0  0  0
   -4.1578   -1.1877    0.0000 C   0  0  0  0  0  0  0  0  0  0  0  0
   -5.3802   -0.3183    0.0000 C   0  0  0  0  0  0  0  0  0  0  0  0
   -5.2385    1.1750    0.0000 C   0  0  0  0  0  0  0  0  0  0  0  0
   -3.8744    1.7989    0.0000 C   0  0  0  0  0  0  0  0  0  0  0  0
   -3.7328    3.2922    0.0000 C   0  0  0  0  0  0  0  0  0  0  0  0
   -2.6520    0.9296    0.0000 C   0  0  0  0  0  0  0  0  0  0  0  0
   -2.7937   -0.5637    0.0000 C   0  0  0  0  0  0  0  0  0  0  0  0
   -1.5713   -1.4330    0.0000 N   0  0  0  0  0  0  0  0  0  0  0  0
   -0.2072   -0.8090    0.0000 C   0  0  0  0  0  0  0  0  0  0  0  0
   -0.0656    0.6843    0.0000 O   0  0  0  0  0  0  0  0  0  0  0  0
    1.0152   -1.6784    0.0000 O   0  0  0  0  0  0  0  0  0  0  0  0
    2.3792   -1.0544    0.0000 C   0  0  0  0  0  0  0  0  0  0  0  0
    3.6016   -1.9237    0.0000 C   0  0  0  0  0  0  0  0  0  0  0  0
    4.9657   -1.2998    0.0000 C   0  0  0  0  0  0  0  0  0  0  0  0
    6.3298   -0.6758    0.0000 C   0  0  0  0  0  0  0  0  0  0  0  0
    6.4714    0.8175    0.0000 C   0  0  0  0  0  0  0  0  0  0  0  0
    5.2490    1.6868    0.0000 C   0  0  0  0  0  0  0  0  0  0  0  0
    3.8849    1.0629    0.0000 C   0  0  0  0  0  0  0  0  0  0  0  0
    2.5209    0.4389    0.0000 C   0  0  0  0  0  0  0  0  0  0  0  0
    3.7433   -0.4304    0.0000 N   0  0  0  0  0  0  0  0  0  0  0  0
    2.3792   -1.0544    0.0000 C   0  0  0  0  0  0  0  0  0  0  0  0
    1.1568   -0.1851    0.0000 C   0  0  0  0  0  0  0  0  0  0  0  0
    1.2985    1.3082    0.0000 C   0  0  0  0  0  0  0  0  0  0  0  0
    0.0761    2.1775    0.0000 C   0  0  0  0  0  0  0  0  0  0  0  0
   -1.2880    1.5536    0.0000 C   0  0  0  0  0  0  0  0  0  0  0  0
   -2.5104    2.4229    0.0000 F   0  0  0  0  0  0  0  0  0  0  0  0
   -1.4296    0.0603    0.0000 C   0  0  0  0  0  0  0  0  0  0  0  0
   -0.2072   -0.8090    0.0000 C   0  0  0  0  0  0  0  0  0  0  0  0
  1  2  1  0
  2  3  1  0
  3  4  2  0
  4  5  1  0
  5  6  2  0
  6  7  1  0
  6  8  1  0
  8  9  2  0
  9 10  1  0
 10 11  1  0
 11 12  2  0
 11 13  1  0
 13 14  1  0
 14 15  1  0
 15 16  1  0
 16 17  1  0
 17 18  1  0
 18 19  1  0
 19 20  1  0
 20 21  1  0
 20 22  1  0
 22 23  1  0
 23 24  1  0
 24 25  2  0
 25 26  1  0
 26 27  2  0
 27 28  1  0
 27 29  1  0
 29 30  2  0
  9  3  1  0
 21 14  1  0
 30 24  1  0
 22 16  1  0
M  END
>  <Ki>  (243) 
30.0

>  <database>  (243) 
SRSLDB

$$$$

     RDKit          2D

 29 32  0  0  0  0  0  0  0  0999 V2000
    9.0635   -3.1604    0.0000 C   0  0  0  0  0  0  0  0  0  0  0  0
    8.8337   -1.6781    0.0000 C   0  0  0  0  0  0  0  0  0  0  0  0
   10.0025   -0.7379    0.0000 O   0  0  0  0  0  0  0  0  0  0  0  0
    7.4351   -1.1359    0.0000 C   0  0  0  0  0  0  0  0  0  0  0  0
    6.2663   -2.0761    0.0000 C   0  0  0  0  0  0  0  0  0  0  0  0
    4.8677   -1.5339    0.0000 C   0  0  0  0  0  0  0  0  0  0  0  0
    4.6379   -0.0516    0.0000 C   0  0  0  0  0  0  0  0  0  0  0  0
    5.8067    0.8885    0.0000 C   0  0  0  0  0  0  0  0  0  0  0  0
    7.2053    0.3464    0.0000 C   0  0  0  0  0  0  0  0  0  0  0  0
    5.2737    2.2906    0.0000 O   0  0  0  0  0  0  0  0  0  0  0  0
    3.7755    2.2170    0.0000 C   0  0  0  0  0  0  0  0  0  0  0  0
    2.8354    3.3858    0.0000 O   0  0  0  0  0  0  0  0  0  0  0  0
    3.3825    0.7694    0.0000 N   0  0  0  0  0  0  0  0  0  0  0  0
    1.9804    0.2365    0.0000 C   0  0  0  0  0  0  0  0  0  0  0  0
    0.8178    1.1843    0.0000 C   0  0  0  0  0  0  0  0  0  0  0  0
   -0.5843    0.6513    0.0000 C   0  0  0  0  0  0  0  0  0  0  0  0
   -1.7469    1.5991    0.0000 C   0  0  0  0  0  0  0  0  0  0  0  0
   -3.1491    1.0661    0.0000 N   0  0  0  0  0  0  0  0  0  0  0  0
   -4.3117    2.0139    0.0000 C   0  0  0  0  0  0  0  0  0  0  0  0
   -5.7138    1.4810    0.0000 C   0  0  0  0  0  0  0  0  0  0  0  0
   -5.9533    0.0002    0.0000 N   0  0  0  0  0  0  0  0  0  0  0  0
   -7.3554   -0.5327    0.0000 C   0  0  0  0  0  0  0  0  0  0  0  0
   -8.5181    0.4151    0.0000 C   0  0  0  0  0  0  0  0  0  0  0  0
   -9.9202   -0.1179    0.0000 C   0  0  0  0  0  0  0  0  0  0  0  0
  -10.1597   -1.5987    0.0000 C   0  0  0  0  0  0  0  0  0  0  0  0
   -8.9971   -2.5465    0.0000 C   0  0  0  0  0  0  0  0  0  0  0  0
   -7.5949   -2.0135    0.0000 C   0  0  0  0  0  0  0  0  0  0  0  0
   -4.7907   -0.9476    0.0000 C   0  0  0  0  0  0  0  0  0  0  0  0
   -3.3886   -0.4146    0.0000 C   0  0  0  0  0  0  0  0  0  0  0  0
  1  2  1  0
  2  3  2  0
  2  4  1  0
  4  5  2  0
  5  6  1  0
  6  7  2  0
  7  8  1  0
  8  9  2  0
  8 10  1  0
 10 11  1  0
 11 12  2  0
 11 13  1  0
 13 14  1  0
 14 15  1  0
 15 16  1  0
 16 17  1  0
 17 18  1  0
 18 19  1  0
 19 20  1  0
 20 21  1  0
 21 22  1  0
 22 23  1  0
 23 24  1  0
 24 25  1  0
 25 26  1  0
 26 27  1  0
 21 28  1  0
 28 29  1  0
  9  4  1  0
 29 18  1  0
 13  7  1  0
 27 22  1  0
M  END
>  <Ki>  (244) 
7.04

>  <database>  (244) 
SRSLDB

$$$$

     RDKit          2D

 33 35  0  0  0  0  0  0  0  0999 V2000
   10.7874   -1.0876    0.0000 C   0  0  0  0  0  0  0  0  0  0  0  0
    9.9739    0.1726    0.0000 O   0  0  0  0  0  0  0  0  0  0  0  0
    8.4758    0.0983    0.0000 C   0  0  0  0  0  0  0  0  0  0  0  0
    7.6623    1.3586    0.0000 C   0  0  0  0  0  0  0  0  0  0  0  0
    6.1642    1.2843    0.0000 C   0  0  0  0  0  0  0  0  0  0  0  0
    5.4794   -0.0503    0.0000 C   0  0  0  0  0  0  0  0  0  0  0  0
    6.2929   -1.3106    0.0000 C   0  0  0  0  0  0  0  0  0  0  0  0
    7.7911   -1.2363    0.0000 C   0  0  0  0  0  0  0  0  0  0  0  0
    8.6045   -2.4966    0.0000 O   0  0  0  0  0  0  0  0  0  0  0  0
    7.9198   -3.8312    0.0000 C   0  0  0  0  0  0  0  0  0  0  0  0
    4.0091   -0.3471    0.0000 C   0  0  0  0  0  0  0  0  0  0  0  0
    2.8603    0.6174    0.0000 N   0  0  0  0  0  0  0  0  0  0  0  0
    1.4929    0.0009    0.0000 C   0  0  0  0  0  0  0  0  0  0  0  0
    0.2752    0.8769    0.0000 C   0  0  0  0  0  0  0  0  0  0  0  0
   -1.0922    0.2604    0.0000 C   0  0  0  0  0  0  0  0  0  0  0  0
   -2.3099    1.1363    0.0000 C   0  0  0  0  0  0  0  0  0  0  0  0
   -3.6773    0.5198    0.0000 N   0  0  0  0  0  0  0  0  0  0  0  0
   -4.8949    1.3958    0.0000 C   0  0  0  0  0  0  0  0  0  0  0  0
   -4.7451    2.8883    0.0000 O   0  0  0  0  0  0  0  0  0  0  0  0
   -6.2624    0.7793    0.0000 C   0  0  0  0  0  0  0  0  0  0  0  0
   -7.4800    1.6552    0.0000 C   0  0  0  0  0  0  0  0  0  0  0  0
   -8.8475    1.0387    0.0000 C   0  0  0  0  0  0  0  0  0  0  0  0
  -10.0651    1.9147    0.0000 Br  0  0  0  0  0  0  0  0  0  0  0  0
   -8.9973   -0.4538    0.0000 C   0  0  0  0  0  0  0  0  0  0  0  0
   -7.7796   -1.3298    0.0000 C   0  0  0  0  0  0  0  0  0  0  0  0
   -7.9294   -2.8223    0.0000 O   0  0  0  0  0  0  0  0  0  0  0  0
   -9.2969   -3.4388    0.0000 C   0  0  0  0  0  0  0  0  0  0  0  0
   -6.4122   -0.7132    0.0000 C   0  0  0  0  0  0  0  0  0  0  0  0
   -5.1945   -1.5892    0.0000 O   0  0  0  0  0  0  0  0  0  0  0  0
   -5.3443   -3.0817    0.0000 C   0  0  0  0  0  0  0  0  0  0  0  0
    2.8982    2.1169    0.0000 C   0  0  0  0  0  0  0  0  0  0  0  0
    4.0941    3.0223    0.0000 C   0  0  0  0  0  0  0  0  0  0  0  0
    5.5476    2.6517    0.0000 C   0  0  0  0  0  0  0  0  0  0  0  0
  1  2  1  0
  2  3  1  0
  3  4  2  0
  4  5  1  0
  5  6  2  0
  6  7  1  0
  7  8  2  0
  8  9  1  0
  9 10  1  0
  6 11  1  0
 11 12  1  0
 12 13  1  0
 13 14  1  0
 14 15  1  0
 15 16  1  0
 16 17  1  0
 17 18  1  0
 18 19  2  0
 18 20  1  0
 20 21  2  0
 21 22  1  0
 22 23  1  0
 22 24  2  0
 24 25  1  0
 25 26  1  0
 26 27  1  0
 25 28  2  0
 28 29  1  0
 29 30  1  0
 12 31  1  0
 31 32  1  0
 32 33  1  0
  8  3  1  0
 28 20  1  0
 33  5  1  0
M  END
>  <ChemBL_ID>  (245) 
CHEMBL1682083

>  <Ki>  (245) 
315.0

>  <database>  (245) 
SRSLDB

$$$$

     RDKit          2D

 25 28  0  0  0  0  0  0  0  0999 V2000
   -5.0909   -2.3885    0.0000 Cl  0  0  0  0  0  0  0  0  0  0  0  0
   -5.8137   -1.0741    0.0000 C   0  0  0  0  0  0  0  0  0  0  0  0
   -7.3133   -1.0428    0.0000 C   0  0  0  0  0  0  0  0  0  0  0  0
   -8.0361    0.2716    0.0000 C   0  0  0  0  0  0  0  0  0  0  0  0
   -7.2592    1.5547    0.0000 C   0  0  0  0  0  0  0  0  0  0  0  0
   -5.7595    1.5234    0.0000 C   0  0  0  0  0  0  0  0  0  0  0  0
   -5.0367    0.2090    0.0000 C   0  0  0  0  0  0  0  0  0  0  0  0
   -3.5371    0.1777    0.0000 C   0  0  0  0  0  0  0  0  0  0  0  0
   -2.8143   -1.1367    0.0000 C   0  0  0  0  0  0  0  0  0  0  0  0
   -1.3146   -1.1680    0.0000 C   0  0  0  0  0  0  0  0  0  0  0  0
   -0.5377    0.1152    0.0000 C   0  0  0  0  0  0  0  0  0  0  0  0
    0.9620    0.0839    0.0000 N   0  0  0  0  0  0  0  0  0  0  0  0
    1.6847   -1.2305    0.0000 C   0  0  0  0  0  0  0  0  0  0  0  0
    3.1844   -1.2618    0.0000 C   0  0  0  0  0  0  0  0  0  0  0  0
    3.9613    0.0213    0.0000 N   0  0  0  0  0  0  0  0  0  0  0  0
    5.4610   -0.0100    0.0000 C   0  0  0  0  0  0  0  0  0  0  0  0
    6.1837   -1.3244    0.0000 C   0  0  0  0  0  0  0  0  0  0  0  0
    7.6834   -1.3556    0.0000 C   0  0  0  0  0  0  0  0  0  0  0  0
    8.4603   -0.0725    0.0000 C   0  0  0  0  0  0  0  0  0  0  0  0
    7.7376    1.2419    0.0000 C   0  0  0  0  0  0  0  0  0  0  0  0
    6.2379    1.2731    0.0000 N   0  0  0  0  0  0  0  0  0  0  0  0
    3.2386    1.3357    0.0000 C   0  0  0  0  0  0  0  0  0  0  0  0
    1.7389    1.3670    0.0000 C   0  0  0  0  0  0  0  0  0  0  0  0
   -1.2605    1.4296    0.0000 C   0  0  0  0  0  0  0  0  0  0  0  0
   -2.7601    1.4608    0.0000 C   0  0  0  0  0  0  0  0  0  0  0  0
  1  2  1  0
  2  3  2  0
  3  4  1  0
  4  5  2  0
  5  6  1  0
  6  7  2  0
  8  7  1  6
  8  9  1  0
  9 10  1  0
 10 11  1  0
 11 12  1  1
 12 13  1  0
 13 14  1  0
 14 15  1  0
 15 16  1  0
 16 17  2  0
 17 18  1  0
 18 19  2  0
 19 20  1  0
 20 21  2  0
 15 22  1  0
 22 23  1  0
 11 24  1  0
 24 25  1  0
  7  2  1  0
 25  8  1  0
 23 12  1  0
 21 16  1  0
M  END
>  <ChemBL_ID>  (246) 
CHEMBL457720

>  <Ki>  (246) 
29.1

>  <database>  (246) 
SRSLDB

$$$$

     RDKit          2D

 27 30  0  0  0  0  0  0  0  0999 V2000
    5.4915   -3.6729    0.0000 O   0  0  0  0  0  0  0  0  0  0  0  0
    5.7793   -2.2008    0.0000 C   0  0  0  0  0  0  0  0  0  0  0  0
    7.1394   -1.5683    0.0000 O   0  0  0  0  0  0  0  0  0  0  0  0
    6.9582   -0.0793    0.0000 C   0  0  0  0  0  0  0  0  0  0  0  0
    7.9435    1.0517    0.0000 C   0  0  0  0  0  0  0  0  0  0  0  0
    7.4566    2.4705    0.0000 C   0  0  0  0  0  0  0  0  0  0  0  0
    5.9845    2.7583    0.0000 C   0  0  0  0  0  0  0  0  0  0  0  0
    4.9992    1.6273    0.0000 C   0  0  0  0  0  0  0  0  0  0  0  0
    5.4861    0.2085    0.0000 C   0  0  0  0  0  0  0  0  0  0  0  0
    4.7575   -1.1027    0.0000 N   0  0  0  0  0  0  0  0  0  0  0  0
    3.2684   -1.2839    0.0000 C   0  0  0  0  0  0  0  0  0  0  0  0
    2.3670   -0.0850    0.0000 C   0  0  0  0  0  0  0  0  0  0  0  0
    0.8780   -0.2662    0.0000 C   0  0  0  0  0  0  0  0  0  0  0  0
   -0.0235    0.9327    0.0000 C   0  0  0  0  0  0  0  0  0  0  0  0
   -1.5125    0.7515    0.0000 N   0  0  0  0  0  0  0  0  0  0  0  0
   -2.4139    1.9504    0.0000 C   0  0  0  0  0  0  0  0  0  0  0  0
   -3.9029    1.7692    0.0000 C   0  0  0  0  0  0  0  0  0  0  0  0
   -4.4905    0.3890    0.0000 N   0  0  0  0  0  0  0  0  0  0  0  0
   -5.9795    0.2078    0.0000 C   0  0  0  0  0  0  0  0  0  0  0  0
   -6.8810    1.4067    0.0000 C   0  0  0  0  0  0  0  0  0  0  0  0
   -8.3700    1.2255    0.0000 C   0  0  0  0  0  0  0  0  0  0  0  0
   -8.9575   -0.1546    0.0000 C   0  0  0  0  0  0  0  0  0  0  0  0
   -8.0561   -1.3535    0.0000 C   0  0  0  0  0  0  0  0  0  0  0  0
   -6.5671   -1.1723    0.0000 C   0  0  0  0  0  0  0  0  0  0  0  0
   -5.6656   -2.3712    0.0000 F   0  0  0  0  0  0  0  0  0  0  0  0
   -3.5891   -0.8099    0.0000 C   0  0  0  0  0  0  0  0  0  0  0  0
   -2.1000   -0.6286    0.0000 C   0  0  0  0  0  0  0  0  0  0  0  0
  1  2  2  0
  2  3  1  0
  3  4  1  0
  4  5  2  0
  5  6  1  0
  6  7  2  0
  7  8  1  0
  8  9  2  0
  9 10  1  0
 10 11  1  0
 11 12  1  0
 12 13  1  0
 13 14  1  0
 14 15  1  0
 15 16  1  0
 16 17  1  0
 17 18  1  0
 18 19  1  0
 19 20  2  0
 20 21  1  0
 21 22  2  0
 22 23  1  0
 23 24  2  0
 24 25  1  0
 18 26  1  0
 26 27  1  0
 10  2  1  0
 27 15  1  0
  9  4  1  0
 24 19  1  0
M  END
>  <Ki>  (247) 
2.79

>  <database>  (247) 
SRSLDB

$$$$

     RDKit          2D

 21 27  0  0  0  0  0  0  0  0999 V2000
    1.0179    3.2685    0.0000 O   0  0  0  0  0  0  0  0  0  0  0  0
    0.8382    1.7793    0.0000 C   0  0  0  0  0  0  0  0  0  0  0  0
    1.9374    0.7586    0.0000 C   0  0  0  0  0  0  0  0  0  0  0  0
    3.2982    0.1276    0.0000 C   0  0  0  0  0  0  0  0  0  0  0  0
    4.7874   -0.0521    0.0000 C   0  0  0  0  0  0  0  0  0  0  0  0
    3.8066   -0.9350    0.0000 C   0  0  0  0  0  0  0  0  0  0  0  0
    3.7663   -2.2539    0.0000 C   0  0  0  0  0  0  0  0  0  0  0  0
    2.6671   -1.2332    0.0000 C   0  0  0  0  0  0  0  0  0  0  0  0
    1.3063   -0.6022    0.0000 C   0  0  0  0  0  0  0  0  0  0  0  0
   -0.1829   -0.4225    0.0000 C   0  0  0  0  0  0  0  0  0  0  0  0
    4.7452   -1.1174    0.0000 C   0  0  0  0  0  0  0  0  0  0  0  0
    4.0574    1.2583    0.0000 C   0  0  0  0  0  0  0  0  0  0  0  0
   -0.4722    1.0494    0.0000 N   0  0  0  0  0  0  0  0  0  0  0  0
   -1.8330    1.6805    0.0000 C   0  0  0  0  0  0  0  0  0  0  0  0
   -3.0599    0.8175    0.0000 C   0  0  0  0  0  0  0  0  0  0  0  0
   -4.4207    1.4486    0.0000 C   0  0  0  0  0  0  0  0  0  0  0  0
   -5.6476    0.5857    0.0000 C   0  0  0  0  0  0  0  0  0  0  0  0
   -5.5137   -0.9083    0.0000 C   0  0  0  0  0  0  0  0  0  0  0  0
   -4.1530   -1.5394    0.0000 C   0  0  0  0  0  0  0  0  0  0  0  0
   -4.0191   -3.0334    0.0000 Cl  0  0  0  0  0  0  0  0  0  0  0  0
   -2.9260   -0.6765    0.0000 C   0  0  0  0  0  0  0  0  0  0  0  0
  2  1  1  6
  3  2  1  1
  3  4  1  0
  4  5  1  1
  5  6  1  1
  7  6  1  6
  8  7  1  1
  8  9  1  0
  9 10  1  1
 11 10  1  1
 11 12  1  0
 10 13  1  1
 13 14  1  0
 14 15  1  0
 15 16  2  0
 16 17  1  0
 17 18  2  0
 18 19  1  0
 19 20  1  0
 19 21  2  0
 12  2  1  0
 21 15  1  0
 13  2  1  0
  9  3  1  0
  8  4  1  0
 12  5  1  6
 11  7  1  0
M  END
>  <ChemBL_ID>  (248) 
CHEMBL2332495

>  <Ki>  (248) 
30.0

>  <database>  (248) 
SRSLDB

$$$$

     RDKit          2D

 28 31  0  0  0  0  0  0  0  0999 V2000
   -8.1391   -3.0821    0.0000 C   0  0  0  0  0  0  0  0  0  0  0  0
   -6.6856   -2.7117    0.0000 O   0  0  0  0  0  0  0  0  0  0  0  0
   -6.2796   -1.2677    0.0000 C   0  0  0  0  0  0  0  0  0  0  0  0
   -7.3272   -0.1941    0.0000 C   0  0  0  0  0  0  0  0  0  0  0  0
   -6.9212    1.2499    0.0000 C   0  0  0  0  0  0  0  0  0  0  0  0
   -5.4677    1.6204    0.0000 C   0  0  0  0  0  0  0  0  0  0  0  0
   -4.7703    2.9484    0.0000 N   0  0  0  0  0  0  0  0  0  0  0  0
   -3.2918    2.6956    0.0000 C   0  0  0  0  0  0  0  0  0  0  0  0
   -3.0753    1.2113    0.0000 C   0  0  0  0  0  0  0  0  0  0  0  0
   -1.7473    0.5140    0.0000 C   0  0  0  0  0  0  0  0  0  0  0  0
   -1.6872   -0.9848    0.0000 O   0  0  0  0  0  0  0  0  0  0  0  0
   -0.4793    1.3154    0.0000 C   0  0  0  0  0  0  0  0  0  0  0  0
    0.8487    0.6181    0.0000 N   0  0  0  0  0  0  0  0  0  0  0  0
    0.9088   -0.8807    0.0000 C   0  0  0  0  0  0  0  0  0  0  0  0
    2.2369   -1.5780    0.0000 C   0  0  0  0  0  0  0  0  0  0  0  0
    3.5048   -0.7766    0.0000 C   0  0  0  0  0  0  0  0  0  0  0  0
    4.0739   -2.1644    0.0000 O   0  0  0  0  0  0  0  0  0  0  0  0
    4.9704   -0.4571    0.0000 C   0  0  0  0  0  0  0  0  0  0  0  0
    5.9799   -1.5666    0.0000 C   0  0  0  0  0  0  0  0  0  0  0  0
    7.4455   -1.2471    0.0000 C   0  0  0  0  0  0  0  0  0  0  0  0
    7.9016    0.1819    0.0000 C   0  0  0  0  0  0  0  0  0  0  0  0
    9.3672    0.5013    0.0000 Br  0  0  0  0  0  0  0  0  0  0  0  0
    6.8921    1.2914    0.0000 C   0  0  0  0  0  0  0  0  0  0  0  0
    5.4265    0.9719    0.0000 C   0  0  0  0  0  0  0  0  0  0  0  0
    3.4447    0.7222    0.0000 C   0  0  0  0  0  0  0  0  0  0  0  0
    2.1166    1.4196    0.0000 C   0  0  0  0  0  0  0  0  0  0  0  0
   -4.4201    0.5468    0.0000 C   0  0  0  0  0  0  0  0  0  0  0  0
   -4.8261   -0.8973    0.0000 C   0  0  0  0  0  0  0  0  0  0  0  0
  1  2  1  0
  2  3  1  0
  3  4  2  0
  4  5  1  0
  5  6  2  0
  6  7  1  0
  7  8  1  0
  8  9  2  0
  9 10  1  0
 10 11  2  0
 10 12  1  0
 12 13  1  0
 13 14  1  0
 14 15  1  0
 15 16  1  0
 16 17  1  0
 16 18  1  0
 18 19  2  0
 19 20  1  0
 20 21  2  0
 21 22  1  0
 21 23  1  0
 23 24  2  0
 16 25  1  0
 25 26  1  0
  9 27  1  0
 27 28  2  0
 28  3  1  0
 27  6  1  0
 26 13  1  0
 24 18  1  0
M  END
>  <ChemBL_ID>  (249) 
CHEMBL3099037

>  <Ki>  (249) 
10.0

>  <database>  (249) 
SRSLDB

$$$$

     RDKit          2D

 31 34  0  0  0  0  0  0  0  0999 V2000
   -8.1553   -2.7467    0.0000 C   0  0  0  0  0  0  0  0  0  0  0  0
   -6.7049   -3.1291    0.0000 O   0  0  0  0  0  0  0  0  0  0  0  0
   -5.6485   -2.0642    0.0000 C   0  0  0  0  0  0  0  0  0  0  0  0
   -6.0425   -0.6169    0.0000 C   0  0  0  0  0  0  0  0  0  0  0  0
   -4.9861    0.4480    0.0000 C   0  0  0  0  0  0  0  0  0  0  0  0
   -3.5356    0.0655    0.0000 C   0  0  0  0  0  0  0  0  0  0  0  0
   -3.1416   -1.3818    0.0000 C   0  0  0  0  0  0  0  0  0  0  0  0
   -4.1980   -2.4467    0.0000 C   0  0  0  0  0  0  0  0  0  0  0  0
   -3.8040   -3.8940    0.0000 O   0  0  0  0  0  0  0  0  0  0  0  0
   -2.3536   -4.2764    0.0000 C   0  0  0  0  0  0  0  0  0  0  0  0
   -2.4792    1.1304    0.0000 C   0  0  0  0  0  0  0  0  0  0  0  0
   -2.8732    2.5778    0.0000 N   0  0  0  0  0  0  0  0  0  0  0  0
   -1.8168    3.6426    0.0000 C   0  0  0  0  0  0  0  0  0  0  0  0
   -0.3664    3.2602    0.0000 C   0  0  0  0  0  0  0  0  0  0  0  0
    0.0276    1.8129    0.0000 C   0  0  0  0  0  0  0  0  0  0  0  0
    1.4781    1.4304    0.0000 C   0  0  0  0  0  0  0  0  0  0  0  0
    2.5345    2.4953    0.0000 N   0  0  0  0  0  0  0  0  0  0  0  0
    3.9849    2.1128    0.0000 C   0  0  0  0  0  0  0  0  0  0  0  0
    5.0413    3.1777    0.0000 O   0  0  0  0  0  0  0  0  0  0  0  0
    4.3789    0.6655    0.0000 C   0  0  0  0  0  0  0  0  0  0  0  0
    5.8293    0.2831    0.0000 C   0  0  0  0  0  0  0  0  0  0  0  0
    6.2233   -1.1643    0.0000 C   0  0  0  0  0  0  0  0  0  0  0  0
    5.1669   -2.2292    0.0000 C   0  0  0  0  0  0  0  0  0  0  0  0
    5.5609   -3.6765    0.0000 C   0  0  0  0  0  0  0  0  0  0  0  0
    7.0114   -4.0589    0.0000 C   0  0  0  0  0  0  0  0  0  0  0  0
    8.0678   -2.9941    0.0000 C   0  0  0  0  0  0  0  0  0  0  0  0
    7.6738   -1.5467    0.0000 C   0  0  0  0  0  0  0  0  0  0  0  0
    2.1405    3.9426    0.0000 C   0  0  0  0  0  0  0  0  0  0  0  0
    0.6901    4.3251    0.0000 C   0  0  0  0  0  0  0  0  0  0  0  0
   -4.3236    2.9602    0.0000 C   0  0  0  0  0  0  0  0  0  0  0  0
   -5.3801    1.8953    0.0000 C   0  0  0  0  0  0  0  0  0  0  0  0
  1  2  1  0
  2  3  1  0
  3  4  2  0
  4  5  1  0
  5  6  2  0
  6  7  1  0
  7  8  2  0
  8  9  1  0
  9 10  1  0
  6 11  1  0
 11 12  1  0
 12 13  1  0
 13 14  1  0
 14 15  1  0
 15 16  1  0
 16 17  1  0
 17 18  1  0
 18 19  2  0
 18 20  1  0
 20 21  2  0
 21 22  1  0
 22 23  2  0
 23 24  1  0
 24 25  2  0
 25 26  1  0
 26 27  2  0
 17 28  1  0
 28 29  1  0
 12 30  1  0
 30 31  1  0
  8  3  1  0
 29 14  1  0
 31  5  1  0
 27 22  1  0
M  END
>  <Ki>  (250) 
137.0

>  <database>  (250) 
SRSLDB

$$$$

     RDKit          2D

 34 37  0  0  0  0  0  0  0  0999 V2000
   -8.7311   -2.1650    0.0000 C   0  0  0  0  0  0  0  0  0  0  0  0
   -7.3180   -2.6679    0.0000 O   0  0  0  0  0  0  0  0  0  0  0  0
   -6.1759   -1.6955    0.0000 C   0  0  0  0  0  0  0  0  0  0  0  0
   -6.4469   -0.2202    0.0000 C   0  0  0  0  0  0  0  0  0  0  0  0
   -5.3048    0.7522    0.0000 C   0  0  0  0  0  0  0  0  0  0  0  0
   -3.8916    0.2493    0.0000 C   0  0  0  0  0  0  0  0  0  0  0  0
   -3.6206   -1.2260    0.0000 C   0  0  0  0  0  0  0  0  0  0  0  0
   -4.7627   -2.1984    0.0000 C   0  0  0  0  0  0  0  0  0  0  0  0
   -4.4916   -3.6737    0.0000 O   0  0  0  0  0  0  0  0  0  0  0  0
   -3.0784   -4.1766    0.0000 C   0  0  0  0  0  0  0  0  0  0  0  0
   -2.7495    1.2218    0.0000 C   0  0  0  0  0  0  0  0  0  0  0  0
   -3.0206    2.6971    0.0000 N   0  0  0  0  0  0  0  0  0  0  0  0
   -1.8785    3.6695    0.0000 C   0  0  0  0  0  0  0  0  0  0  0  0
   -0.4653    3.1666    0.0000 C   0  0  0  0  0  0  0  0  0  0  0  0
   -0.1942    1.6913    0.0000 C   0  0  0  0  0  0  0  0  0  0  0  0
    1.2190    1.1884    0.0000 C   0  0  0  0  0  0  0  0  0  0  0  0
    2.3611    2.1608    0.0000 N   0  0  0  0  0  0  0  0  0  0  0  0
    3.7743    1.6579    0.0000 C   0  0  0  0  0  0  0  0  0  0  0  0
    4.9164    2.6303    0.0000 O   0  0  0  0  0  0  0  0  0  0  0  0
    4.0453    0.1826    0.0000 C   0  0  0  0  0  0  0  0  0  0  0  0
    2.9032   -0.7898    0.0000 C   0  0  0  0  0  0  0  0  0  0  0  0
    3.1743   -2.2651    0.0000 C   0  0  0  0  0  0  0  0  0  0  0  0
    2.0322   -3.2375    0.0000 Br  0  0  0  0  0  0  0  0  0  0  0  0
    4.5875   -2.7680    0.0000 C   0  0  0  0  0  0  0  0  0  0  0  0
    5.7296   -1.7956    0.0000 C   0  0  0  0  0  0  0  0  0  0  0  0
    7.1428   -2.2985    0.0000 O   0  0  0  0  0  0  0  0  0  0  0  0
    7.4139   -3.7738    0.0000 C   0  0  0  0  0  0  0  0  0  0  0  0
    5.4585   -0.3203    0.0000 C   0  0  0  0  0  0  0  0  0  0  0  0
    6.6006    0.6521    0.0000 O   0  0  0  0  0  0  0  0  0  0  0  0
    8.0138    0.1492    0.0000 C   0  0  0  0  0  0  0  0  0  0  0  0
    2.0900    3.6361    0.0000 C   0  0  0  0  0  0  0  0  0  0  0  0
    0.6768    4.1390    0.0000 C   0  0  0  0  0  0  0  0  0  0  0  0
   -4.4338    3.1999    0.0000 C   0  0  0  0  0  0  0  0  0  0  0  0
   -5.5759    2.2275    0.0000 C   0  0  0  0  0  0  0  0  0  0  0  0
  1  2  1  0
  2  3  1  0
  3  4  2  0
  4  5  1  0
  5  6  2  0
  6  7  1  0
  7  8  2  0
  8  9  1  0
  9 10  1  0
  6 11  1  0
 11 12  1  0
 12 13  1  0
 13 14  1  0
 14 15  1  0
 15 16  1  0
 16 17  1  0
 17 18  1  0
 18 19  2  0
 18 20  1  0
 20 21  2  0
 21 22  1  0
 22 23  1  0
 22 24  2  0
 24 25  1  0
 25 26  1  0
 26 27  1  0
 25 28  2  0
 28 29  1  0
 29 30  1  0
 17 31  1  0
 31 32  1  0
 12 33  1  0
 33 34  1  0
  8  3  1  0
 32 14  1  0
 34  5  1  0
 28 20  1  0
M  END
>  <Ki>  (251) 
367.0

>  <database>  (251) 
SRSLDB

$$$$

     RDKit          2D

 25 29  0  0  0  0  0  0  0  0999 V2000
   -6.6215    1.1358    0.0000 C   0  0  0  0  0  0  0  0  0  0  0  0
   -5.1750    1.5325    0.0000 O   0  0  0  0  0  0  0  0  0  0  0  0
   -4.1081    0.4781    0.0000 C   0  0  0  0  0  0  0  0  0  0  0  0
   -4.4879   -0.9731    0.0000 O   0  0  0  0  0  0  0  0  0  0  0  0
   -2.6615    0.8748    0.0000 C   0  0  0  0  0  0  0  0  0  0  0  0
   -2.0197   -0.4810    0.0000 C   0  0  0  0  0  0  0  0  0  0  0  0
   -2.8728   -1.7147    0.0000 C   0  0  0  0  0  0  0  0  0  0  0  0
   -2.2310   -3.0704    0.0000 C   0  0  0  0  0  0  0  0  0  0  0  0
   -0.7359   -3.1924    0.0000 C   0  0  0  0  0  0  0  0  0  0  0  0
    0.1172   -1.9587    0.0000 C   0  0  0  0  0  0  0  0  0  0  0  0
   -0.5246   -0.6030    0.0000 C   0  0  0  0  0  0  0  0  0  0  0  0
   -2.8010    2.3683    0.0000 C   0  0  0  0  0  0  0  0  0  0  0  0
   -1.4378    1.7423    0.0000 C   0  0  0  0  0  0  0  0  0  0  0  0
    0.0557    1.8818    0.0000 C   0  0  0  0  0  0  0  0  0  0  0  0
    0.9232    0.6581    0.0000 N   0  0  0  0  0  0  0  0  0  0  0  0
    2.4167    0.7975    0.0000 C   0  0  0  0  0  0  0  0  0  0  0  0
    3.2842   -0.4261    0.0000 C   0  0  0  0  0  0  0  0  0  0  0  0
    4.7777   -0.2867    0.0000 C   0  0  0  0  0  0  0  0  0  0  0  0
    5.4037    1.0765    0.0000 C   0  0  0  0  0  0  0  0  0  0  0  0
    4.5362    2.3002    0.0000 C   0  0  0  0  0  0  0  0  0  0  0  0
    2.5188   -0.2958    0.0000 C   0  0  0  0  0  0  0  0  0  0  0  0
    2.6583   -1.7893    0.0000 C   0  0  0  0  0  0  0  0  0  0  0  0
    4.1518   -1.6498    0.0000 C   0  0  0  0  0  0  0  0  0  0  0  0
    1.7907   -0.5656    0.0000 C   0  0  0  0  0  0  0  0  0  0  0  0
    3.0427    2.1607    0.0000 C   0  0  0  0  0  0  0  0  0  0  0  0
  1  2  1  0
  2  3  1  0
  3  4  2  0
  5  3  1  6
  5  6  1  0
  6  7  2  0
  7  8  1  0
  8  9  2  0
  9 10  1  0
 10 11  2  0
  5 12  1  0
 12 13  1  0
 13 14  1  6
 14 15  1  0
 15 16  1  0
 16 17  1  0
 17 18  1  0
 18 19  1  0
 19 20  1  0
 20 21  1  0
 21 22  1  0
 22 23  1  0
 22 24  1  0
 20 25  1  0
 13  5  1  0
 24 16  1  0
 11  6  1  0
 25 16  1  0
 23 18  1  0
M  END
>  <Ki>  (252) 
39.4

>  <database>  (252) 
SRSLDB

$$$$

     RDKit          2D

 26 29  0  0  0  0  0  0  0  0999 V2000
    5.3422   -3.6662    0.0000 S   0  0  0  0  0  0  0  0  0  0  0  0
    5.6027   -2.1890    0.0000 C   0  0  0  0  0  0  0  0  0  0  0  0
    6.9510   -1.5315    0.0000 O   0  0  0  0  0  0  0  0  0  0  0  0
    6.7423   -0.0461    0.0000 C   0  0  0  0  0  0  0  0  0  0  0  0
    7.7065    1.1029    0.0000 C   0  0  0  0  0  0  0  0  0  0  0  0
    7.1936    2.5125    0.0000 C   0  0  0  0  0  0  0  0  0  0  0  0
    5.7164    2.7730    0.0000 C   0  0  0  0  0  0  0  0  0  0  0  0
    4.7522    1.6240    0.0000 C   0  0  0  0  0  0  0  0  0  0  0  0
    5.2651    0.2145    0.0000 C   0  0  0  0  0  0  0  0  0  0  0  0
    4.5608   -1.1099    0.0000 N   0  0  0  0  0  0  0  0  0  0  0  0
    3.0754   -1.3186    0.0000 C   0  0  0  0  0  0  0  0  0  0  0  0
    2.1520   -0.1365    0.0000 C   0  0  0  0  0  0  0  0  0  0  0  0
    0.6666   -0.3452    0.0000 C   0  0  0  0  0  0  0  0  0  0  0  0
   -0.2569    0.8369    0.0000 C   0  0  0  0  0  0  0  0  0  0  0  0
   -1.7423    0.6283    0.0000 N   0  0  0  0  0  0  0  0  0  0  0  0
   -2.6657    1.8103    0.0000 C   0  0  0  0  0  0  0  0  0  0  0  0
   -4.1511    1.6017    0.0000 C   0  0  0  0  0  0  0  0  0  0  0  0
   -4.7131    0.2109    0.0000 N   0  0  0  0  0  0  0  0  0  0  0  0
   -6.1985    0.0023    0.0000 C   0  0  0  0  0  0  0  0  0  0  0  0
   -7.1219    1.1843    0.0000 C   0  0  0  0  0  0  0  0  0  0  0  0
   -8.6074    0.9757    0.0000 C   0  0  0  0  0  0  0  0  0  0  0  0
   -9.1694   -0.4151    0.0000 C   0  0  0  0  0  0  0  0  0  0  0  0
   -8.2459   -1.5971    0.0000 C   0  0  0  0  0  0  0  0  0  0  0  0
   -6.7605   -1.3885    0.0000 C   0  0  0  0  0  0  0  0  0  0  0  0
   -3.7897   -0.9712    0.0000 C   0  0  0  0  0  0  0  0  0  0  0  0
   -2.3043   -0.7625    0.0000 C   0  0  0  0  0  0  0  0  0  0  0  0
  1  2  2  0
  2  3  1  0
  3  4  1  0
  4  5  2  0
  5  6  1  0
  6  7  2  0
  7  8  1  0
  8  9  2  0
  9 10  1  0
 10 11  1  0
 11 12  1  0
 12 13  1  0
 13 14  1  0
 14 15  1  0
 15 16  1  0
 16 17  1  0
 17 18  1  0
 18 19  1  0
 19 20  1  0
 20 21  1  0
 21 22  1  0
 22 23  1  0
 23 24  1  0
 18 25  1  0
 25 26  1  0
 10  2  1  0
 26 15  1  0
  9  4  1  0
 24 19  1  0
M  END
>  <ChemBL_ID>  (253) 
CHEMBL272854

>  <Ki>  (253) 
0.77

>  <database>  (253) 
SRSLDB

$$$$

     RDKit          2D

 30 33  0  0  0  0  0  0  0  0999 V2000
    9.3861   -3.2751    0.0000 C   0  0  0  0  0  0  0  0  0  0  0  0
    9.1856   -1.7885    0.0000 C   0  0  0  0  0  0  0  0  0  0  0  0
   10.3727   -0.8716    0.0000 O   0  0  0  0  0  0  0  0  0  0  0  0
    7.7979   -1.2189    0.0000 C   0  0  0  0  0  0  0  0  0  0  0  0
    6.6108   -2.1358    0.0000 C   0  0  0  0  0  0  0  0  0  0  0  0
    5.2232   -1.5662    0.0000 C   0  0  0  0  0  0  0  0  0  0  0  0
    5.0227   -0.0797    0.0000 C   0  0  0  0  0  0  0  0  0  0  0  0
    6.2098    0.8372    0.0000 C   0  0  0  0  0  0  0  0  0  0  0  0
    7.5974    0.2676    0.0000 C   0  0  0  0  0  0  0  0  0  0  0  0
    5.7046    2.2496    0.0000 O   0  0  0  0  0  0  0  0  0  0  0  0
    4.2052    2.2056    0.0000 C   0  0  0  0  0  0  0  0  0  0  0  0
    3.2883    3.3927    0.0000 S   0  0  0  0  0  0  0  0  0  0  0  0
    3.7838    0.7660    0.0000 N   0  0  0  0  0  0  0  0  0  0  0  0
    2.3714    0.2608    0.0000 C   0  0  0  0  0  0  0  0  0  0  0  0
    1.2277    1.2313    0.0000 C   0  0  0  0  0  0  0  0  0  0  0  0
   -0.1846    0.7261    0.0000 C   0  0  0  0  0  0  0  0  0  0  0  0
   -1.3283    1.6967    0.0000 C   0  0  0  0  0  0  0  0  0  0  0  0
   -2.7407    1.1915    0.0000 N   0  0  0  0  0  0  0  0  0  0  0  0
   -3.8844    2.1620    0.0000 C   0  0  0  0  0  0  0  0  0  0  0  0
   -5.2968    1.6568    0.0000 C   0  0  0  0  0  0  0  0  0  0  0  0
   -5.5654    0.1811    0.0000 N   0  0  0  0  0  0  0  0  0  0  0  0
   -6.9778   -0.3241    0.0000 C   0  0  0  0  0  0  0  0  0  0  0  0
   -8.1215    0.6464    0.0000 C   0  0  0  0  0  0  0  0  0  0  0  0
   -9.5339    0.1412    0.0000 C   0  0  0  0  0  0  0  0  0  0  0  0
   -9.8025   -1.3345    0.0000 C   0  0  0  0  0  0  0  0  0  0  0  0
  -11.2149   -1.8397    0.0000 F   0  0  0  0  0  0  0  0  0  0  0  0
   -8.6588   -2.3050    0.0000 C   0  0  0  0  0  0  0  0  0  0  0  0
   -7.2465   -1.7998    0.0000 C   0  0  0  0  0  0  0  0  0  0  0  0
   -4.4217   -0.7895    0.0000 C   0  0  0  0  0  0  0  0  0  0  0  0
   -3.0094   -0.2843    0.0000 C   0  0  0  0  0  0  0  0  0  0  0  0
  1  2  1  0
  2  3  2  0
  2  4  1  0
  4  5  2  0
  5  6  1  0
  6  7  2  0
  7  8  1  0
  8  9  2  0
  8 10  1  0
 10 11  1  0
 11 12  2  0
 11 13  1  0
 13 14  1  0
 14 15  1  0
 15 16  1  0
 16 17  1  0
 17 18  1  0
 18 19  1  0
 19 20  1  0
 20 21  1  0
 21 22  1  0
 22 23  2  0
 23 24  1  0
 24 25  2  0
 25 26  1  0
 25 27  1  0
 27 28  2  0
 21 29  1  0
 29 30  1  0
  9  4  1  0
 30 18  1  0
 13  7  1  0
 28 22  1  0
M  END
>  <Ki>  (254) 
1.88

>  <database>  (254) 
SRSLDB

$$$$

     RDKit          2D

 22 24  0  0  0  0  0  0  0  0999 V2000
    1.8603   -2.2250    0.0000 C   0  0  0  0  0  0  0  0  0  0  0  0
    1.1074   -0.9277    0.0000 C   0  0  0  0  0  0  0  0  0  0  0  0
    1.8544    0.3730    0.0000 S   0  0  0  0  0  0  0  0  0  0  0  0
    3.3544    0.3764    0.0000 C   0  0  0  0  0  0  0  0  0  0  0  0
    4.1074   -0.9209    0.0000 C   0  0  0  0  0  0  0  0  0  0  0  0
    5.6074   -0.9175    0.0000 C   0  0  0  0  0  0  0  0  0  0  0  0
    6.3544    0.3833    0.0000 C   0  0  0  0  0  0  0  0  0  0  0  0
    7.8544    0.3867    0.0000 Br  0  0  0  0  0  0  0  0  0  0  0  0
    5.6015    1.6806    0.0000 C   0  0  0  0  0  0  0  0  0  0  0  0
    4.1015    1.6772    0.0000 C   0  0  0  0  0  0  0  0  0  0  0  0
   -0.3926   -0.9311    0.0000 C   0  0  0  0  0  0  0  0  0  0  0  0
   -1.1397   -2.2318    0.0000 O   0  0  0  0  0  0  0  0  0  0  0  0
   -1.1455    0.3662    0.0000 O   0  0  0  0  0  0  0  0  0  0  0  0
   -2.6455    0.3628    0.0000 C   0  0  0  0  0  0  0  0  0  0  0  0
   -3.3926   -0.9379    0.0000 C   0  0  0  0  0  0  0  0  0  0  0  0
   -4.8926   -0.9413    0.0000 C   0  0  0  0  0  0  0  0  0  0  0  0
   -6.3202   -0.4810    0.0000 C   0  0  0  0  0  0  0  0  0  0  0  0
   -6.3236    1.0190    0.0000 C   0  0  0  0  0  0  0  0  0  0  0  0
   -4.8981    1.4857    0.0000 C   0  0  0  0  0  0  0  0  0  0  0  0
   -3.3985    1.6602    0.0000 C   0  0  0  0  0  0  0  0  0  0  0  0
   -4.0137    0.2742    0.0000 N   0  0  0  0  0  0  0  0  0  0  0  0
   -3.2406    0.4689    0.0000 C   0  0  0  0  0  0  0  0  0  0  0  0
  1  2  1  0
  2  3  1  0
  3  4  1  0
  4  5  2  0
  5  6  1  0
  6  7  2  0
  7  8  1  0
  7  9  1  0
  9 10  2  0
  2 11  1  0
 11 12  2  0
 11 13  1  0
 13 14  1  0
 14 15  1  0
 15 16  1  0
 16 17  1  0
 17 18  1  0
 18 19  1  0
 19 20  1  0
 19 21  1  0
 21 22  1  0
 10  4  1  0
 20 14  1  0
 21 16  1  0
M  END
>  <ChemBL_ID>  (255) 
CHEMBL416817

>  <Ki>  (255) 
321.0

>  <database>  (255) 
SRSLDB

$$$$

     RDKit          2D

 30 34  0  0  0  0  0  0  0  0999 V2000
   -7.3630   -4.8365    0.0000 F   0  0  0  0  0  0  0  0  0  0  0  0
   -6.4809   -3.6233    0.0000 C   0  0  0  0  0  0  0  0  0  0  0  0
   -7.0905   -2.2527    0.0000 C   0  0  0  0  0  0  0  0  0  0  0  0
   -6.2084   -1.0395    0.0000 N   0  0  0  0  0  0  0  0  0  0  0  0
   -4.7084   -1.0400    0.0000 C   0  0  0  0  0  0  0  0  0  0  0  0
   -4.2444    0.3864    0.0000 C   0  0  0  0  0  0  0  0  0  0  0  0
   -2.8176    0.8494    0.0000 C   0  0  0  0  0  0  0  0  0  0  0  0
   -1.7032   -0.1547    0.0000 C   0  0  0  0  0  0  0  0  0  0  0  0
   -0.2765    0.3083    0.0000 C   0  0  0  0  0  0  0  0  0  0  0  0
    0.8379   -0.6958    0.0000 C   0  0  0  0  0  0  0  0  0  0  0  0
    2.2646   -0.2328    0.0000 N   0  0  0  0  0  0  0  0  0  0  0  0
    3.3790   -1.2368    0.0000 C   0  0  0  0  0  0  0  0  0  0  0  0
    4.8057   -0.7738    0.0000 C   0  0  0  0  0  0  0  0  0  0  0  0
    5.1181    0.6933    0.0000 C   0  0  0  0  0  0  0  0  0  0  0  0
    4.0038    1.6974    0.0000 C   0  0  0  0  0  0  0  0  0  0  0  0
    2.5770    1.2344    0.0000 C   0  0  0  0  0  0  0  0  0  0  0  0
    5.5821    2.1197    0.0000 O   0  0  0  0  0  0  0  0  0  0  0  0
    7.0821    2.1192    0.0000 C   0  0  0  0  0  0  0  0  0  0  0  0
    7.5452    0.6924    0.0000 C   0  0  0  0  0  0  0  0  0  0  0  0
    8.9153    0.0818    0.0000 C   0  0  0  0  0  0  0  0  0  0  0  0
    9.0715   -1.4100    0.0000 C   0  0  0  0  0  0  0  0  0  0  0  0
    7.8577   -2.2913    0.0000 C   0  0  0  0  0  0  0  0  0  0  0  0
    6.4876   -1.6807    0.0000 C   0  0  0  0  0  0  0  0  0  0  0  0
    6.3313   -0.1888    0.0000 C   0  0  0  0  0  0  0  0  0  0  0  0
   -5.4576    1.2685    0.0000 C   0  0  0  0  0  0  0  0  0  0  0  0
   -5.6138    2.7603    0.0000 C   0  0  0  0  0  0  0  0  0  0  0  0
   -6.9839    3.3709    0.0000 C   0  0  0  0  0  0  0  0  0  0  0  0
   -8.1978    2.4897    0.0000 C   0  0  0  0  0  0  0  0  0  0  0  0
   -8.0415    0.9978    0.0000 C   0  0  0  0  0  0  0  0  0  0  0  0
   -6.6714    0.3872    0.0000 C   0  0  0  0  0  0  0  0  0  0  0  0
  1  2  1  0
  2  3  1  0
  3  4  1  0
  4  5  1  0
  5  6  2  0
  6  7  1  0
  7  8  1  0
  8  9  1  0
  9 10  1  0
 10 11  1  0
 11 12  1  0
 12 13  1  0
 13 14  1  0
 14 15  1  0
 15 16  1  0
 14 17  1  0
 17 18  1  0
 18 19  1  0
 19 20  2  0
 20 21  1  0
 21 22  2  0
 22 23  1  0
 23 24  2  0
  6 25  1  0
 25 26  2  0
 26 27  1  0
 27 28  2  0
 28 29  1  0
 29 30  2  0
 30  4  1  0
 16 11  1  0
 24 19  1  0
 30 25  1  0
 24 14  1  0
M  END
>  <Ki>  (256) 
44.0

>  <database>  (256) 
SRSLDB

$$$$

     RDKit          2D

 23 26  0  0  0  0  0  0  0  0999 V2000
   -8.3624   -0.7498    0.0000 F   0  0  0  0  0  0  0  0  0  0  0  0
   -6.8891   -0.4683    0.0000 C   0  0  0  0  0  0  0  0  0  0  0  0
   -6.3962    0.9484    0.0000 C   0  0  0  0  0  0  0  0  0  0  0  0
   -4.9228    1.2300    0.0000 C   0  0  0  0  0  0  0  0  0  0  0  0
   -3.9424    0.0947    0.0000 C   0  0  0  0  0  0  0  0  0  0  0  0
   -2.4690    0.3763    0.0000 N   0  0  0  0  0  0  0  0  0  0  0  0
   -1.4886   -0.7589    0.0000 C   0  0  0  0  0  0  0  0  0  0  0  0
   -0.0152   -0.4774    0.0000 C   0  0  0  0  0  0  0  0  0  0  0  0
    0.4777    0.9393    0.0000 N   0  0  0  0  0  0  0  0  0  0  0  0
    1.9510    1.2208    0.0000 C   0  0  0  0  0  0  0  0  0  0  0  0
    2.9315    0.0856    0.0000 C   0  0  0  0  0  0  0  0  0  0  0  0
    2.5894   -1.3749    0.0000 C   0  0  0  0  0  0  0  0  0  0  0  0
    3.8727   -2.1516    0.0000 N   0  0  0  0  0  0  0  0  0  0  0  0
    5.0079   -1.1711    0.0000 C   0  0  0  0  0  0  0  0  0  0  0  0
    6.4961   -1.3586    0.0000 C   0  0  0  0  0  0  0  0  0  0  0  0
    7.4026   -0.1636    0.0000 C   0  0  0  0  0  0  0  0  0  0  0  0
    6.8209    1.2190    0.0000 C   0  0  0  0  0  0  0  0  0  0  0  0
    5.3327    1.4066    0.0000 C   0  0  0  0  0  0  0  0  0  0  0  0
    4.4262    0.2115    0.0000 C   0  0  0  0  0  0  0  0  0  0  0  0
   -0.5028    2.0745    0.0000 C   0  0  0  0  0  0  0  0  0  0  0  0
   -1.9762    1.7930    0.0000 C   0  0  0  0  0  0  0  0  0  0  0  0
   -4.4353   -1.3220    0.0000 C   0  0  0  0  0  0  0  0  0  0  0  0
   -5.9086   -1.6035    0.0000 C   0  0  0  0  0  0  0  0  0  0  0  0
  1  2  1  0
  2  3  2  0
  3  4  1  0
  4  5  2  0
  5  6  1  0
  6  7  1  0
  7  8  1  0
  8  9  1  0
  9 10  1  0
 10 11  1  0
 11 12  2  0
 12 13  1  0
 13 14  1  0
 14 15  2  0
 15 16  1  0
 16 17  2  0
 17 18  1  0
 18 19  2  0
  9 20  1  0
 20 21  1  0
  5 22  1  0
 22 23  2  0
 23  2  1  0
 21  6  1  0
 19 11  1  0
 19 14  1  0
M  END
>  <ChemBL_ID>  (257) 
CHEMBL1468874

>  <Ki>  (257) 
660.0

>  <database>  (257) 
SRSLDB

$$$$

     RDKit          2D

 29 32  0  0  0  0  0  0  0  0999 V2000
    3.4727    3.6372    0.0000 C   0  0  0  0  0  0  0  0  0  0  0  0
    3.5933    2.1421    0.0000 C   0  0  0  0  0  0  0  0  0  0  0  0
    4.9485    1.4990    0.0000 C   0  0  0  0  0  0  0  0  0  0  0  0
    5.0691    0.0039    0.0000 C   0  0  0  0  0  0  0  0  0  0  0  0
    3.8346   -0.8482    0.0000 C   0  0  0  0  0  0  0  0  0  0  0  0
    3.9553   -2.3433    0.0000 N   0  0  0  0  0  4  0  0  0  0  0  0
    2.7208   -3.1954    0.0000 O   0  0  0  0  0  0  0  0  0  0  0  0
    5.3104   -2.9864    0.0000 O   0  0  0  0  0  1  0  0  0  0  0  0
    2.4795   -0.2051    0.0000 C   0  0  0  0  0  0  0  0  0  0  0  0
    2.3588    1.2901    0.0000 C   0  0  0  0  0  0  0  0  0  0  0  0
    1.0037    1.9331    0.0000 N   0  0  0  0  0  0  0  0  0  0  0  0
   -0.2308    1.0811    0.0000 C   0  0  0  0  0  0  0  0  0  0  0  0
   -0.1102   -0.4140    0.0000 O   0  0  0  0  0  0  0  0  0  0  0  0
   -1.5860    1.7242    0.0000 O   0  0  0  0  0  0  0  0  0  0  0  0
   -2.8205    0.8721    0.0000 C   0  0  0  0  0  0  0  0  0  0  0  0
   -2.6998   -0.6230    0.0000 C   0  0  0  0  0  0  0  0  0  0  0  0
   -3.9343   -1.4751    0.0000 C   0  0  0  0  0  0  0  0  0  0  0  0
   -5.3717   -1.9039    0.0000 C   0  0  0  0  0  0  0  0  0  0  0  0
   -6.2238   -0.6694    0.0000 C   0  0  0  0  0  0  0  0  0  0  0  0
   -5.3130    0.5224    0.0000 C   0  0  0  0  0  0  0  0  0  0  0  0
   -4.1756    1.5152    0.0000 C   0  0  0  0  0  0  0  0  0  0  0  0
   -3.8980    0.0245    0.0000 N   0  0  0  0  0  0  0  0  0  0  0  0
   -2.6635    0.8766    0.0000 C   0  0  0  0  0  0  0  0  0  0  0  0
   -1.3084    0.2335    0.0000 C   0  0  0  0  0  0  0  0  0  0  0  0
   -1.1877   -1.2617    0.0000 C   0  0  0  0  0  0  0  0  0  0  0  0
    0.1674   -1.9048    0.0000 C   0  0  0  0  0  0  0  0  0  0  0  0
    1.4019   -1.0527    0.0000 C   0  0  0  0  0  0  0  0  0  0  0  0
    1.2813    0.4424    0.0000 C   0  0  0  0  0  0  0  0  0  0  0  0
   -0.0739    1.0855    0.0000 C   0  0  0  0  0  0  0  0  0  0  0  0
  1  2  1  0
  2  3  2  0
  3  4  1  0
  4  5  2  0
  5  6  1  0
  6  7  2  0
  6  8  1  0
  5  9  1  0
  9 10  2  0
 10 11  1  0
 11 12  1  0
 12 13  2  0
 12 14  1  0
 14 15  1  0
 15 16  1  0
 16 17  1  0
 17 18  1  0
 18 19  1  0
 19 20  1  0
 20 21  1  0
 20 22  1  0
 22 23  1  0
 23 24  1  0
 24 25  2  0
 25 26  1  0
 26 27  2  0
 27 28  1  0
 28 29  2  0
 10  2  1  0
 21 15  1  0
 29 24  1  0
 22 17  1  0
M  CHG  2   6   1   8  -1
M  END
>  <Ki>  (258) 
3.1

>  <database>  (258) 
SRSLDB

$$$$

     RDKit          2D

 36 40  0  0  0  0  0  0  0  0999 V2000
  -14.0076   -1.9400    0.0000 F   0  0  0  0  0  0  0  0  0  0  0  0
  -12.5359   -2.2301    0.0000 C   0  0  0  0  0  0  0  0  0  0  0  0
  -11.5488   -1.1007    0.0000 C   0  0  0  0  0  0  0  0  0  0  0  0
  -10.0771   -1.3908    0.0000 O   0  0  0  0  0  0  0  0  0  0  0  0
   -9.0900   -0.2614    0.0000 C   0  0  0  0  0  0  0  0  0  0  0  0
   -9.5746    1.1582    0.0000 C   0  0  0  0  0  0  0  0  0  0  0  0
   -8.5875    2.2877    0.0000 C   0  0  0  0  0  0  0  0  0  0  0  0
   -7.1159    1.9975    0.0000 C   0  0  0  0  0  0  0  0  0  0  0  0
   -6.6313    0.5780    0.0000 C   0  0  0  0  0  0  0  0  0  0  0  0
   -5.1596    0.2879    0.0000 N   0  0  0  0  0  0  0  0  0  0  0  0
   -4.6750   -1.1317    0.0000 C   0  0  0  0  0  0  0  0  0  0  0  0
   -3.2033   -1.4218    0.0000 C   0  0  0  0  0  0  0  0  0  0  0  0
   -2.2162   -0.2924    0.0000 N   0  0  0  0  0  0  0  0  0  0  0  0
   -0.7446   -0.5825    0.0000 C   0  0  0  0  0  0  0  0  0  0  0  0
    0.2425    0.5470    0.0000 C   0  0  0  0  0  0  0  0  0  0  0  0
    1.7142    0.2568    0.0000 C   0  0  0  0  0  0  0  0  0  0  0  0
    2.7013    1.3863    0.0000 C   0  0  0  0  0  0  0  0  0  0  0  0
    4.1730    1.0962    0.0000 C   0  0  0  0  0  0  0  0  0  0  0  0
    4.8033   -0.2650    0.0000 C   0  0  0  0  0  0  0  0  0  0  0  0
    6.2926   -0.0861    0.0000 N   0  0  0  0  0  0  0  0  0  0  0  0
    7.3127   -1.1858    0.0000 C   0  0  0  0  0  0  0  0  0  0  0  0
    6.8703   -2.6191    0.0000 C   0  0  0  0  0  0  0  0  0  0  0  0
    7.8904   -3.7189    0.0000 C   0  0  0  0  0  0  0  0  0  0  0  0
    9.3528   -3.3853    0.0000 C   0  0  0  0  0  0  0  0  0  0  0  0
   10.3729   -4.4851    0.0000 F   0  0  0  0  0  0  0  0  0  0  0  0
    9.7952   -1.9520    0.0000 C   0  0  0  0  0  0  0  0  0  0  0  0
    8.7751   -0.8523    0.0000 C   0  0  0  0  0  0  0  0  0  0  0  0
    6.5827    1.3856    0.0000 C   0  0  0  0  0  0  0  0  0  0  0  0
    7.8705    2.1547    0.0000 C   0  0  0  0  0  0  0  0  0  0  0  0
    7.8483    3.6546    0.0000 C   0  0  0  0  0  0  0  0  0  0  0  0
    6.5383    4.3852    0.0000 C   0  0  0  0  0  0  0  0  0  0  0  0
    5.2505    3.6161    0.0000 C   0  0  0  0  0  0  0  0  0  0  0  0
    5.2727    2.1163    0.0000 C   0  0  0  0  0  0  0  0  0  0  0  0
   -2.7008    1.1272    0.0000 C   0  0  0  0  0  0  0  0  0  0  0  0
   -4.1725    1.4173    0.0000 C   0  0  0  0  0  0  0  0  0  0  0  0
   -7.6184   -0.5515    0.0000 C   0  0  0  0  0  0  0  0  0  0  0  0
  1  2  1  0
  2  3  1  0
  3  4  1  0
  4  5  1  0
  5  6  2  0
  6  7  1  0
  7  8  2  0
  8  9  1  0
  9 10  1  0
 10 11  1  0
 11 12  1  0
 12 13  1  0
 13 14  1  0
 14 15  1  0
 15 16  1  0
 16 17  1  0
 17 18  1  0
 18 19  2  0
 19 20  1  0
 20 21  1  0
 21 22  2  0
 22 23  1  0
 23 24  2  0
 24 25  1  0
 24 26  1  0
 26 27  2  0
 20 28  1  0
 28 29  2  0
 29 30  1  0
 30 31  2  0
 31 32  1  0
 32 33  2  0
 13 34  1  0
 34 35  1  0
  9 36  2  0
 36  5  1  0
 35 10  1  0
 33 18  1  0
 27 21  1  0
 33 28  1  0
M  END
>  <Ki>  (259) 
48.4

>  <database>  (259) 
SRSLDB

$$$$

     RDKit          2D

 20 25  0  0  0  0  0  0  0  0999 V2000
    6.5719    0.4682    0.0000 C   0  0  0  0  0  0  0  0  0  0  0  0
    6.3293   -1.0120    0.0000 C   0  0  0  0  0  0  0  0  0  0  0  0
    4.9260   -1.5421    0.0000 C   0  0  0  0  0  0  0  0  0  0  0  0
    3.7654   -0.5918    0.0000 C   0  0  0  0  0  0  0  0  0  0  0  0
    2.3622   -1.1218    0.0000 C   0  0  0  0  0  0  0  0  0  0  0  0
    1.2016   -0.1716    0.0000 C   0  0  0  0  0  0  0  0  0  0  0  0
   -0.2017   -0.7016    0.0000 N   0  0  0  0  0  0  0  0  0  0  0  0
   -1.3623    0.2486    0.0000 C   0  0  0  0  0  0  0  0  0  0  0  0
   -1.2758    1.7461    0.0000 C   0  0  0  0  0  0  0  0  0  0  0  0
   -2.1223    0.5079    0.0000 C   0  0  0  0  0  0  0  0  0  0  0  0
   -2.0794   -0.9915    0.0000 C   0  0  0  0  0  0  0  0  0  0  0  0
   -3.4921   -1.4957    0.0000 C   0  0  0  0  0  0  0  0  0  0  0  0
   -4.4082   -0.3079    0.0000 C   0  0  0  0  0  0  0  0  0  0  0  0
   -3.5616    0.9304    0.0000 C   0  0  0  0  0  0  0  0  0  0  0  0
   -3.6045    2.4298    0.0000 C   0  0  0  0  0  0  0  0  0  0  0  0
   -2.1918    2.9339    0.0000 C   0  0  0  0  0  0  0  0  0  0  0  0
   -5.5960   -1.2239    0.0000 C   0  0  0  0  0  0  0  0  0  0  0  0
   -4.6799   -2.4117    0.0000 C   0  0  0  0  0  0  0  0  0  0  0  0
    4.0080    0.8884    0.0000 C   0  0  0  0  0  0  0  0  0  0  0  0
    5.4113    1.4184    0.0000 C   0  0  0  0  0  0  0  0  0  0  0  0
  1  2  2  0
  2  3  1  0
  3  4  2  0
  4  5  1  0
  5  6  1  0
  6  7  1  0
  7  8  1  0
  8  9  1  0
  9 10  1  0
 10 11  1  0
 11 12  1  0
 12 13  1  0
 13 14  1  0
 14 15  1  0
 15 16  1  0
 16 17  1  0
 17 18  1  0
  4 19  1  0
 19 20  2  0
 20  1  1  0
 18  8  1  0
 16  9  1  0
 14 10  1  0
 18 12  1  0
 17 13  1  0
M  END
>  <ChemBL_ID>  (260) 
CHEMBL2432048

>  <Ki>  (260) 
9.3

>  <database>  (260) 
SRSLDB

$$$$

     RDKit          2D

 56 60  0  0  0  0  0  0  0  0999 V2000
    4.8044   -3.5204    0.0000 C   0  0  0  0  0  0  0  0  0  0  0  0
    6.1134   -2.7881    0.0000 O   0  0  0  0  0  0  0  0  0  0  0  0
    6.1338   -1.2883    0.0000 C   0  0  0  0  0  0  0  0  0  0  0  0
    4.8450   -0.5207    0.0000 C   0  0  0  0  0  0  0  0  0  0  0  0
    4.8654    0.9791    0.0000 C   0  0  0  0  0  0  0  0  0  0  0  0
    6.1745    1.7115    0.0000 C   0  0  0  0  0  0  0  0  0  0  0  0
    6.1948    3.2113    0.0000 C   0  0  0  0  0  0  0  0  0  0  0  0
    7.4632    0.9439    0.0000 C   0  0  0  0  0  0  0  0  0  0  0  0
    7.4429   -0.5560    0.0000 C   0  0  0  0  0  0  0  0  0  0  0  0
    8.7316   -1.3235    0.0000 N   0  0  0  0  0  0  0  0  0  0  0  0
   10.0407   -0.5912    0.0000 C   0  0  0  0  0  0  0  0  0  0  0  0
   10.0611    0.9087    0.0000 O   0  0  0  0  0  0  0  0  0  0  0  0
   11.3295   -1.3587    0.0000 O   0  0  0  0  0  0  0  0  0  0  0  0
   12.6386   -0.6264    0.0000 C   0  0  0  0  0  0  0  0  0  0  0  0
   13.9273   -1.3940    0.0000 C   0  0  0  0  0  0  0  0  0  0  0  0
   15.2364   -0.6617    0.0000 C   0  0  0  0  0  0  0  0  0  0  0  0
   16.5455    0.0706    0.0000 C   0  0  0  0  0  0  0  0  0  0  0  0
   16.5658    1.5705    0.0000 C   0  0  0  0  0  0  0  0  0  0  0  0
   15.2771    2.3381    0.0000 C   0  0  0  0  0  0  0  0  0  0  0  0
   13.9680    1.6057    0.0000 C   0  0  0  0  0  0  0  0  0  0  0  0
   12.6589    0.8734    0.0000 C   0  0  0  0  0  0  0  0  0  0  0  0
   13.9476    0.1059    0.0000 N   0  0  0  0  0  0  0  0  0  0  0  0
   12.6386   -0.6264    0.0000 C   0  0  0  0  0  0  0  0  0  0  0  0
   11.3498    0.1411    0.0000 C   0  0  0  0  0  0  0  0  0  0  0  0
   10.0407   -0.5912    0.0000 C   0  0  0  0  0  0  0  0  0  0  0  0
    8.7520    0.1764    0.0000 C   0  0  0  0  0  0  0  0  0  0  0  0
    7.4429   -0.5560    0.0000 C   0  0  0  0  0  0  0  0  0  0  0  0
    6.1541    0.2116    0.0000 C   0  0  0  0  0  0  0  0  0  0  0  0
    4.8450   -0.5207    0.0000 C   0  0  0  0  0  0  0  0  0  0  0  0
    3.5563    0.2468    0.0000 C   0  0  0  0  0  0  0  0  0  0  0  0
    2.2472   -0.4855    0.0000 C   0  0  0  0  0  0  0  0  0  0  0  0
    0.9585    0.2821    0.0000 C   0  0  0  0  0  0  0  0  0  0  0  0
   -0.3506   -0.4502    0.0000 N   0  0  0  0  0  0  0  0  0  0  0  0
   -1.6394    0.3173    0.0000 C   0  0  0  0  0  0  0  0  0  0  0  0
   -1.6190    1.8172    0.0000 O   0  0  0  0  0  0  0  0  0  0  0  0
   -2.9485   -0.4150    0.0000 C   0  0  0  0  0  0  0  0  0  0  0  0
   -4.2372    0.3526    0.0000 C   0  0  0  0  0  0  0  0  0  0  0  0
   -5.5463   -0.3798    0.0000 C   0  0  0  0  0  0  0  0  0  0  0  0
   -6.8351    0.3878    0.0000 C   0  0  0  0  0  0  0  0  0  0  0  0
   -8.1441   -0.3445    0.0000 C   0  0  0  0  0  0  0  0  0  0  0  0
   -9.4329    0.4230    0.0000 N   0  0  0  0  0  0  0  0  0  0  0  0
  -10.7420   -0.3093    0.0000 C   0  0  0  0  0  0  0  0  0  0  0  0
  -10.7623   -1.8091    0.0000 O   0  0  0  0  0  0  0  0  0  0  0  0
  -12.0307    0.4583    0.0000 C   0  0  0  0  0  0  0  0  0  0  0  0
  -13.3398   -0.2740    0.0000 C   0  0  0  0  0  0  0  0  0  0  0  0
  -14.6286    0.4935    0.0000 C   0  0  0  0  0  0  0  0  0  0  0  0
  -15.9377   -0.2388    0.0000 C   0  0  0  0  0  0  0  0  0  0  0  0
  -17.2264    0.5288    0.0000 C   0  0  0  0  0  0  0  0  0  0  0  0
  -17.3629    2.0225    0.0000 S   0  0  0  0  0  0  0  0  0  0  0  0
  -18.8258    2.3543    0.0000 C   0  0  0  0  0  0  0  0  0  0  0  0
  -19.5934    1.0655    0.0000 C   0  0  0  0  0  0  0  0  0  0  0  0
  -20.9718    0.4741    0.0000 N   0  0  0  0  0  0  0  0  0  0  0  0
  -20.8353   -1.0197    0.0000 C   0  0  0  0  0  0  0  0  0  0  0  0
  -21.9635   -2.0082    0.0000 O   0  0  0  0  0  0  0  0  0  0  0  0
  -19.3724   -1.3514    0.0000 N   0  0  0  0  0  0  0  0  0  0  0  0
  -18.6049   -0.0627    0.0000 C   0  0  0  0  0  0  0  0  0  0  0  0
  1  2  1  0
  2  3  1  0
  3  4  2  0
  4  5  1  0
  5  6  2  0
  6  7  1  0
  6  8  1  0
  8  9  2  0
  9 10  1  0
 10 11  1  0
 11 12  2  0
 11 13  1  0
 13 14  1  0
 14 15  1  0
 15 16  1  0
 16 17  1  0
 17 18  1  0
 18 19  1  0
 19 20  1  0
 20 21  1  0
 20 22  1  0
 22 23  1  0
 23 24  1  0
 24 25  1  0
 25 26  1  0
 26 27  1  0
 27 28  1  0
 28 29  1  0
 29 30  1  0
 30 31  1  0
 31 32  1  0
 32 33  1  0
 33 34  1  0
 34 35  2  0
 34 36  1  0
 36 37  1  0
 37 38  1  0
 38 39  1  0
 39 40  1  0
 40 41  1  0
 41 42  1  0
 42 43  2  0
 42 44  1  0
 44 45  1  0
 45 46  1  0
 46 47  1  0
 48 47  1  6
 48 49  1  0
 49 50  1  0
 51 50  1  6
 51 52  1  0
 52 53  1  0
 53 54  2  0
 53 55  1  0
 56 55  1  6
  9  3  1  0
 21 14  1  0
 56 48  1  0
 22 16  1  0
 56 51  1  0
M  END
>  <Ki>  (261) 
733.0

>  <database>  (261) 
SRSLDB

$$$$

     RDKit          2D

 21 27  0  0  0  0  0  0  0  0999 V2000
    1.0179    3.2685    0.0000 O   0  0  0  0  0  0  0  0  0  0  0  0
    0.8382    1.7793    0.0000 C   0  0  0  0  0  0  0  0  0  0  0  0
    1.9374    0.7586    0.0000 C   0  0  0  0  0  0  0  0  0  0  0  0
    3.2982    0.1276    0.0000 C   0  0  0  0  0  0  0  0  0  0  0  0
    4.7874   -0.0521    0.0000 C   0  0  0  0  0  0  0  0  0  0  0  0
    3.8066   -0.9350    0.0000 C   0  0  0  0  0  0  0  0  0  0  0  0
    3.7663   -2.2539    0.0000 C   0  0  0  0  0  0  0  0  0  0  0  0
    2.6671   -1.2332    0.0000 C   0  0  0  0  0  0  0  0  0  0  0  0
    1.3063   -0.6022    0.0000 C   0  0  0  0  0  0  0  0  0  0  0  0
   -0.1829   -0.4225    0.0000 C   0  0  0  0  0  0  0  0  0  0  0  0
    4.7452   -1.1174    0.0000 C   0  0  0  0  0  0  0  0  0  0  0  0
    4.0574    1.2583    0.0000 C   0  0  0  0  0  0  0  0  0  0  0  0
   -0.4722    1.0494    0.0000 N   0  0  0  0  0  0  0  0  0  0  0  0
   -1.8330    1.6805    0.0000 C   0  0  0  0  0  0  0  0  0  0  0  0
   -3.0599    0.8175    0.0000 C   0  0  0  0  0  0  0  0  0  0  0  0
   -4.4207    1.4486    0.0000 C   0  0  0  0  0  0  0  0  0  0  0  0
   -5.6476    0.5857    0.0000 C   0  0  0  0  0  0  0  0  0  0  0  0
   -5.5137   -0.9083    0.0000 C   0  0  0  0  0  0  0  0  0  0  0  0
   -4.1530   -1.5394    0.0000 C   0  0  0  0  0  0  0  0  0  0  0  0
   -4.0191   -3.0334    0.0000 Br  0  0  0  0  0  0  0  0  0  0  0  0
   -2.9260   -0.6765    0.0000 C   0  0  0  0  0  0  0  0  0  0  0  0
  2  1  1  6
  3  2  1  1
  3  4  1  0
  4  5  1  1
  5  6  1  1
  7  6  1  6
  8  7  1  1
  8  9  1  0
  9 10  1  1
 11 10  1  1
 11 12  1  0
 10 13  1  1
 13 14  1  0
 14 15  1  0
 15 16  2  0
 16 17  1  0
 17 18  2  0
 18 19  1  0
 19 20  1  0
 19 21  2  0
 12  2  1  0
 21 15  1  0
 13  2  1  0
  9  3  1  0
  8  4  1  0
 12  5  1  6
 11  7  1  0
M  END
>  <ChemBL_ID>  (262) 
CHEMBL348313

>  <Ki>  (262) 
40.0

>  <database>  (262) 
SRSLDB

$$$$

     RDKit          2D

 22 24  0  0  0  0  0  0  0  0999 V2000
    3.6346   -1.9796    0.0000 C   0  0  0  0  0  0  0  0  0  0  0  0
    2.1356   -2.0345    0.0000 C   0  0  0  0  0  0  0  0  0  0  0  0
    1.3386   -0.7637    0.0000 C   0  0  0  0  0  0  0  0  0  0  0  0
    2.0407    0.5619    0.0000 S   0  0  0  0  0  0  0  0  0  0  0  0
    3.5397    0.6167    0.0000 C   0  0  0  0  0  0  0  0  0  0  0  0
    4.3366   -0.6540    0.0000 C   0  0  0  0  0  0  0  0  0  0  0  0
    5.8356   -0.5992    0.0000 C   0  0  0  0  0  0  0  0  0  0  0  0
    6.5377    0.7264    0.0000 C   0  0  0  0  0  0  0  0  0  0  0  0
    5.7407    1.9971    0.0000 C   0  0  0  0  0  0  0  0  0  0  0  0
    4.2417    1.9423    0.0000 C   0  0  0  0  0  0  0  0  0  0  0  0
   -0.1604   -0.8185    0.0000 C   0  0  0  0  0  0  0  0  0  0  0  0
   -0.8624   -2.1441    0.0000 O   0  0  0  0  0  0  0  0  0  0  0  0
   -0.9573    0.4522    0.0000 O   0  0  0  0  0  0  0  0  0  0  0  0
   -2.4563    0.3974    0.0000 C   0  0  0  0  0  0  0  0  0  0  0  0
   -3.1584   -0.9282    0.0000 C   0  0  0  0  0  0  0  0  0  0  0  0
   -4.6574   -0.9830    0.0000 C   0  0  0  0  0  0  0  0  0  0  0  0
   -6.0999   -0.5719    0.0000 C   0  0  0  0  0  0  0  0  0  0  0  0
   -6.1547    0.9271    0.0000 C   0  0  0  0  0  0  0  0  0  0  0  0
   -4.7461    1.4424    0.0000 C   0  0  0  0  0  0  0  0  0  0  0  0
   -3.2533    1.6682    0.0000 C   0  0  0  0  0  0  0  0  0  0  0  0
   -3.8206    0.2620    0.0000 N   0  0  0  0  0  0  0  0  0  0  0  0
   -3.0547    0.4830    0.0000 C   0  0  0  0  0  0  0  0  0  0  0  0
  1  2  1  0
  2  3  1  0
  3  4  1  0
  4  5  1  0
  5  6  2  0
  6  7  1  0
  7  8  2  0
  8  9  1  0
  9 10  2  0
  3 11  1  0
 11 12  2  0
 11 13  1  0
 13 14  1  0
 14 15  1  0
 15 16  1  0
 16 17  1  0
 17 18  1  0
 18 19  1  0
 19 20  1  0
 19 21  1  0
 21 22  1  0
 10  5  1  0
 20 14  1  0
 21 16  1  0
M  END
>  <ChemBL_ID>  (263) 
CHEMBL46193

>  <Ki>  (263) 
197.6

>  <database>  (263) 
SRSLDB

$$$$

     RDKit          2D

 22 24  0  0  0  0  0  0  0  0999 V2000
    1.8880   -3.4948    0.0000 C   0  0  0  0  0  0  0  0  0  0  0  0
    1.4726   -2.0535    0.0000 C   0  0  0  0  0  0  0  0  0  0  0  0
    0.0167   -1.6925    0.0000 C   0  0  0  0  0  0  0  0  0  0  0  0
   -1.0239   -2.7729    0.0000 O   0  0  0  0  0  0  0  0  0  0  0  0
   -0.3987   -0.2512    0.0000 O   0  0  0  0  0  0  0  0  0  0  0  0
   -1.8546    0.1098    0.0000 C   0  0  0  0  0  0  0  0  0  0  0  0
   -2.8952   -0.9706    0.0000 C   0  0  0  0  0  0  0  0  0  0  0  0
   -4.3511   -0.6097    0.0000 C   0  0  0  0  0  0  0  0  0  0  0  0
   -5.6242    0.1835    0.0000 C   0  0  0  0  0  0  0  0  0  0  0  0
   -5.2633    1.6394    0.0000 C   0  0  0  0  0  0  0  0  0  0  0  0
   -3.7671    1.7461    0.0000 C   0  0  0  0  0  0  0  0  0  0  0  0
   -2.2700    1.5511    0.0000 C   0  0  0  0  0  0  0  0  0  0  0  0
   -3.2033    0.3560    0.0000 N   0  0  0  0  0  0  0  0  0  0  0  0
   -2.4061    0.3571    0.0000 C   0  0  0  0  0  0  0  0  0  0  0  0
    2.5132   -0.9731    0.0000 C   0  0  0  0  0  0  0  0  0  0  0  0
    3.9691   -1.3340    0.0000 C   0  0  0  0  0  0  0  0  0  0  0  0
    5.0096   -0.2536    0.0000 C   0  0  0  0  0  0  0  0  0  0  0  0
    4.5943    1.1877    0.0000 C   0  0  0  0  0  0  0  0  0  0  0  0
    5.6348    2.2681    0.0000 Cl  0  0  0  0  0  0  0  0  0  0  0  0
    3.1383    1.5487    0.0000 C   0  0  0  0  0  0  0  0  0  0  0  0
    2.7230    2.9900    0.0000 Cl  0  0  0  0  0  0  0  0  0  0  0  0
    2.0978    0.4683    0.0000 C   0  0  0  0  0  0  0  0  0  0  0  0
  1  2  1  0
  2  3  1  0
  3  4  2  0
  3  5  1  0
  5  6  1  0
  6  7  1  0
  7  8  1  0
  8  9  1  0
  9 10  1  0
 10 11  1  0
 11 12  1  0
 11 13  1  0
 13 14  1  0
  2 15  1  0
 15 16  2  0
 16 17  1  0
 17 18  2  0
 18 19  1  0
 18 20  1  0
 20 21  1  0
 20 22  2  0
 12  6  1  0
 22 15  1  0
 13  8  1  0
M  END
>  <ChemBL_ID>  (264) 
CHEMBL1199313

>  <Ki>  (264) 
310.0

>  <database>  (264) 
SRSLDB

$$$$

     RDKit          2D

 21 27  0  0  0  0  0  0  0  0999 V2000
    1.0179    3.2685    0.0000 O   0  0  0  0  0  0  0  0  0  0  0  0
    0.8382    1.7793    0.0000 C   0  0  0  0  0  0  0  0  0  0  0  0
    1.9374    0.7586    0.0000 C   0  0  0  0  0  0  0  0  0  0  0  0
    3.2982    0.1276    0.0000 C   0  0  0  0  0  0  0  0  0  0  0  0
    4.7874   -0.0521    0.0000 C   0  0  0  0  0  0  0  0  0  0  0  0
    3.8066   -0.9350    0.0000 C   0  0  0  0  0  0  0  0  0  0  0  0
    3.7663   -2.2539    0.0000 C   0  0  0  0  0  0  0  0  0  0  0  0
    2.6671   -1.2332    0.0000 C   0  0  0  0  0  0  0  0  0  0  0  0
    1.3063   -0.6022    0.0000 C   0  0  0  0  0  0  0  0  0  0  0  0
   -0.1829   -0.4225    0.0000 C   0  0  0  0  0  0  0  0  0  0  0  0
    4.7452   -1.1174    0.0000 C   0  0  0  0  0  0  0  0  0  0  0  0
    4.0574    1.2583    0.0000 C   0  0  0  0  0  0  0  0  0  0  0  0
   -0.4722    1.0494    0.0000 N   0  0  0  0  0  0  0  0  0  0  0  0
   -1.8330    1.6805    0.0000 C   0  0  0  0  0  0  0  0  0  0  0  0
   -3.0599    0.8175    0.0000 C   0  0  0  0  0  0  0  0  0  0  0  0
   -4.4207    1.4486    0.0000 C   0  0  0  0  0  0  0  0  0  0  0  0
   -5.6476    0.5857    0.0000 C   0  0  0  0  0  0  0  0  0  0  0  0
   -5.5137   -0.9083    0.0000 C   0  0  0  0  0  0  0  0  0  0  0  0
   -4.1530   -1.5394    0.0000 C   0  0  0  0  0  0  0  0  0  0  0  0
   -4.0191   -3.0334    0.0000 F   0  0  0  0  0  0  0  0  0  0  0  0
   -2.9260   -0.6765    0.0000 C   0  0  0  0  0  0  0  0  0  0  0  0
  2  1  1  6
  3  2  1  1
  3  4  1  0
  4  5  1  1
  5  6  1  1
  7  6  1  6
  8  7  1  1
  8  9  1  0
  9 10  1  1
 11 10  1  1
 11 12  1  0
 10 13  1  1
 13 14  1  0
 14 15  1  0
 15 16  2  0
 16 17  1  0
 17 18  2  0
 18 19  1  0
 19 20  1  0
 19 21  2  0
 12  2  1  0
 21 15  1  0
 13  2  1  0
  9  3  1  0
  8  4  1  0
 12  5  1  6
 11  7  1  0
M  END
>  <ChemBL_ID>  (265) 
CHEMBL608560

>  <Ki>  (265) 
31.0

>  <database>  (265) 
SRSLDB

$$$$

     RDKit          2D

 26 29  0  0  0  0  0  0  0  0999 V2000
   -9.1808   -1.8725    0.0000 C   0  0  0  0  0  0  0  0  0  0  0  0
   -7.6833   -1.9589    0.0000 O   0  0  0  0  0  0  0  0  0  0  0  0
   -6.8597   -0.7052    0.0000 C   0  0  0  0  0  0  0  0  0  0  0  0
   -7.5336    0.6348    0.0000 C   0  0  0  0  0  0  0  0  0  0  0  0
   -6.7101    1.8885    0.0000 C   0  0  0  0  0  0  0  0  0  0  0  0
   -5.2125    1.8021    0.0000 C   0  0  0  0  0  0  0  0  0  0  0  0
   -4.5386    0.4620    0.0000 C   0  0  0  0  0  0  0  0  0  0  0  0
   -3.0411    0.3756    0.0000 C   0  0  0  0  0  0  0  0  0  0  0  0
   -2.3672   -0.9644    0.0000 C   0  0  0  0  0  0  0  0  0  0  0  0
   -0.8697   -1.0508    0.0000 C   0  0  0  0  0  0  0  0  0  0  0  0
   -0.0461    0.2028    0.0000 C   0  0  0  0  0  0  0  0  0  0  0  0
    1.4514    0.1164    0.0000 N   0  0  0  0  0  0  0  0  0  0  0  0
    2.1254   -1.2236    0.0000 C   0  0  0  0  0  0  0  0  0  0  0  0
    3.6229   -1.3100    0.0000 C   0  0  0  0  0  0  0  0  0  0  0  0
    4.4464   -0.0564    0.0000 N   0  0  0  0  0  0  0  0  0  0  0  0
    5.9440   -0.1428    0.0000 C   0  0  0  0  0  0  0  0  0  0  0  0
    6.6179   -1.4828    0.0000 C   0  0  0  0  0  0  0  0  0  0  0  0
    8.1154   -1.5692    0.0000 C   0  0  0  0  0  0  0  0  0  0  0  0
    8.9390   -0.3156    0.0000 C   0  0  0  0  0  0  0  0  0  0  0  0
    8.2650    1.0245    0.0000 C   0  0  0  0  0  0  0  0  0  0  0  0
    6.7675    1.1109    0.0000 N   0  0  0  0  0  0  0  0  0  0  0  0
    3.7725    1.2837    0.0000 C   0  0  0  0  0  0  0  0  0  0  0  0
    2.2750    1.3701    0.0000 C   0  0  0  0  0  0  0  0  0  0  0  0
   -0.7200    1.5429    0.0000 C   0  0  0  0  0  0  0  0  0  0  0  0
   -2.2175    1.6293    0.0000 C   0  0  0  0  0  0  0  0  0  0  0  0
   -5.3622   -0.7916    0.0000 C   0  0  0  0  0  0  0  0  0  0  0  0
  1  2  1  0
  2  3  1  0
  3  4  2  0
  4  5  1  0
  5  6  2  0
  6  7  1  0
  8  7  1  6
  8  9  1  0
  9 10  1  0
 10 11  1  0
 11 12  1  6
 12 13  1  0
 13 14  1  0
 14 15  1  0
 15 16  1  0
 16 17  2  0
 17 18  1  0
 18 19  2  0
 19 20  1  0
 20 21  2  0
 15 22  1  0
 22 23  1  0
 11 24  1  0
 24 25  1  0
  7 26  2  0
 26  3  1  0
 25  8  1  0
 23 12  1  0
 21 16  1  0
M  END
>  <ChemBL_ID>  (266) 
CHEMBL521350

>  <Ki>  (266) 
36.1

>  <database>  (266) 
SRSLDB

$$$$

     RDKit          2D

 27 30  0  0  0  0  0  0  0  0999 V2000
   -7.7677   -3.1251    0.0000 C   0  0  0  0  0  0  0  0  0  0  0  0
   -6.3171   -2.7432    0.0000 O   0  0  0  0  0  0  0  0  0  0  0  0
   -5.9226   -1.2960    0.0000 C   0  0  0  0  0  0  0  0  0  0  0  0
   -6.9786   -0.2308    0.0000 C   0  0  0  0  0  0  0  0  0  0  0  0
   -6.5841    1.2164    0.0000 C   0  0  0  0  0  0  0  0  0  0  0  0
   -5.1335    1.5983    0.0000 C   0  0  0  0  0  0  0  0  0  0  0  0
   -4.4467    2.9319    0.0000 N   0  0  0  0  0  0  0  0  0  0  0  0
   -2.9662    2.6908    0.0000 C   0  0  0  0  0  0  0  0  0  0  0  0
   -2.7380    1.2082    0.0000 C   0  0  0  0  0  0  0  0  0  0  0  0
   -1.4045    0.5214    0.0000 C   0  0  0  0  0  0  0  0  0  0  0  0
   -1.3325   -0.9768    0.0000 O   0  0  0  0  0  0  0  0  0  0  0  0
   -0.1430    1.3329    0.0000 C   0  0  0  0  0  0  0  0  0  0  0  0
    1.1906    0.6461    0.0000 N   0  0  0  0  0  0  0  0  0  0  0  0
    1.2626   -0.8522    0.0000 C   0  0  0  0  0  0  0  0  0  0  0  0
    2.5961   -1.5389    0.0000 C   0  0  0  0  0  0  0  0  0  0  0  0
    3.8576   -0.7275    0.0000 C   0  0  0  0  0  0  0  0  0  0  0  0
    4.4377   -2.1108    0.0000 O   0  0  0  0  0  0  0  0  0  0  0  0
    5.3206   -0.3964    0.0000 C   0  0  0  0  0  0  0  0  0  0  0  0
    6.3389   -1.4979    0.0000 C   0  0  0  0  0  0  0  0  0  0  0  0
    7.8019   -1.1668    0.0000 C   0  0  0  0  0  0  0  0  0  0  0  0
    8.2467    0.2657    0.0000 C   0  0  0  0  0  0  0  0  0  0  0  0
    7.2285    1.3672    0.0000 C   0  0  0  0  0  0  0  0  0  0  0  0
    5.7654    1.0361    0.0000 C   0  0  0  0  0  0  0  0  0  0  0  0
    3.7857    0.7708    0.0000 C   0  0  0  0  0  0  0  0  0  0  0  0
    2.4521    1.4576    0.0000 C   0  0  0  0  0  0  0  0  0  0  0  0
   -4.0775    0.5331    0.0000 C   0  0  0  0  0  0  0  0  0  0  0  0
   -4.4720   -0.9141    0.0000 C   0  0  0  0  0  0  0  0  0  0  0  0
  1  2  1  0
  2  3  1  0
  3  4  2  0
  4  5  1  0
  5  6  2  0
  6  7  1  0
  7  8  1  0
  8  9  2  0
  9 10  1  0
 10 11  2  0
 10 12  1  0
 12 13  1  0
 13 14  1  0
 14 15  1  0
 15 16  1  0
 16 17  1  0
 16 18  1  0
 18 19  2  0
 19 20  1  0
 20 21  2  0
 21 22  1  0
 22 23  2  0
 16 24  1  0
 24 25  1  0
  9 26  1  0
 26 27  2  0
 27  3  1  0
 26  6  1  0
 25 13  1  0
 23 18  1  0
M  END
>  <ChemBL_ID>  (267) 
CHEMBL3099035

>  <Ki>  (267) 
21.0

>  <database>  (267) 
SRSLDB

$$$$

     RDKit          2D

 26 28  0  0  0  0  0  0  0  0999 V2000
   -9.7172   -0.0770    0.0000 C   0  0  0  0  0  0  0  0  0  0  0  0
   -8.3629   -0.7218    0.0000 O   0  0  0  0  0  0  0  0  0  0  0  0
   -7.1273    0.1286    0.0000 C   0  0  0  0  0  0  0  0  0  0  0  0
   -7.2460    1.6239    0.0000 C   0  0  0  0  0  0  0  0  0  0  0  0
   -6.0104    2.4744    0.0000 C   0  0  0  0  0  0  0  0  0  0  0  0
   -4.6561    1.8295    0.0000 C   0  0  0  0  0  0  0  0  0  0  0  0
   -4.5374    0.3342    0.0000 C   0  0  0  0  0  0  0  0  0  0  0  0
   -5.7730   -0.5162    0.0000 C   0  0  0  0  0  0  0  0  0  0  0  0
   -5.6542   -2.0115    0.0000 C   0  0  0  0  0  0  0  0  0  0  0  0
   -4.2999   -2.6563    0.0000 C   0  0  0  0  0  0  0  0  0  0  0  0
   -3.0643   -1.8059    0.0000 C   0  0  0  0  0  0  0  0  0  0  0  0
   -3.1830   -0.3106    0.0000 C   0  0  0  0  0  0  0  0  0  0  0  0
   -1.9474    0.5399    0.0000 C   0  0  0  0  0  0  0  0  0  0  0  0
   -0.5931   -0.1050    0.0000 C   0  0  0  0  0  0  0  0  0  0  0  0
    0.6425    0.7455    0.0000 C   0  0  0  0  0  0  0  0  0  0  0  0
    1.9968    0.1007    0.0000 N   0  0  0  0  0  0  0  0  0  0  0  0
    3.2324    0.9511    0.0000 C   0  0  0  0  0  0  0  0  0  0  0  0
    4.5867    0.3063    0.0000 C   0  0  0  0  0  0  0  0  0  0  0  0
    4.7055   -1.1890    0.0000 O   0  0  0  0  0  0  0  0  0  0  0  0
    5.8223    1.1568    0.0000 N   0  0  0  0  0  0  0  0  0  0  0  0
    7.1767    0.5119    0.0000 C   0  0  0  0  0  0  0  0  0  0  0  0
    7.2954   -0.9834    0.0000 C   0  0  0  0  0  0  0  0  0  0  0  0
    8.6497   -1.6282    0.0000 C   0  0  0  0  0  0  0  0  0  0  0  0
    9.8853   -0.7777    0.0000 C   0  0  0  0  0  0  0  0  0  0  0  0
    9.7666    0.7175    0.0000 C   0  0  0  0  0  0  0  0  0  0  0  0
    8.4123    1.3624    0.0000 C   0  0  0  0  0  0  0  0  0  0  0  0
  1  2  1  0
  2  3  1  0
  3  4  2  0
  4  5  1  0
  5  6  2  0
  6  7  1  0
  7  8  2  0
  8  9  1  0
  9 10  1  0
 10 11  1  0
 11 12  1  0
 12 13  1  0
 13 14  1  0
 14 15  1  0
 15 16  1  0
 16 17  1  0
 17 18  1  0
 18 19  2  0
 18 20  1  0
 20 21  1  0
 21 22  1  0
 22 23  1  0
 23 24  1  0
 24 25  1  0
 25 26  1  0
  8  3  1  0
 26 21  1  0
 12  7  1  0
M  END
>  <ChemBL_ID>  (268) 
CHEMBL575262

>  <Ki>  (268) 
798.0

>  <database>  (268) 
SRSLDB

$$$$

     RDKit          2D

 24 30  0  0  0  0  0  0  0  0999 V2000
    1.5810   -3.5198    0.0000 C   0  0  0  0  0  0  0  0  0  0  0  0
    2.9769   -2.9707    0.0000 O   0  0  0  0  0  0  0  0  0  0  0  0
    3.1993   -1.4873    0.0000 C   0  0  0  0  0  0  0  0  0  0  0  0
    2.0258   -0.5530    0.0000 C   0  0  0  0  0  0  0  0  0  0  0  0
    2.2482    0.9304    0.0000 C   0  0  0  0  0  0  0  0  0  0  0  0
    1.0747    1.8647    0.0000 C   0  0  0  0  0  0  0  0  0  0  0  0
   -0.3212    1.3156    0.0000 N   0  0  0  0  0  0  0  0  0  0  0  0
   -0.6974   -0.1365    0.0000 C   0  0  0  0  0  0  0  0  0  0  0  0
   -1.5039   -1.4012    0.0000 C   0  0  0  0  0  0  0  0  0  0  0  0
   -4.7484   -1.7301    0.0000 C   0  0  0  0  0  0  0  0  0  0  0  0
   -6.0131   -0.9236    0.0000 C   0  0  0  0  0  0  0  0  0  0  0  0
   -5.6369    0.5285    0.0000 C   0  0  0  0  0  0  0  0  0  0  0  0
   -4.1397    0.6194    0.0000 C   0  0  0  0  0  0  0  0  0  0  0  0
   -3.5905   -0.7765    0.0000 C   0  0  0  0  0  0  0  0  0  0  0  0
   -2.1947   -0.2274    0.0000 C   0  0  0  0  0  0  0  0  0  0  0  0
   -2.7438    1.1685    0.0000 C   0  0  0  0  0  0  0  0  0  0  0  0
   -1.5859    2.1221    0.0000 C   0  0  0  0  0  0  0  0  0  0  0  0
   -1.6769    3.6194    0.0000 O   0  0  0  0  0  0  0  0  0  0  0  0
   -4.9103   -0.7838    0.0000 C   0  0  0  0  0  0  0  0  0  0  0  0
    3.6440    1.4796    0.0000 C   0  0  0  0  0  0  0  0  0  0  0  0
    4.8175    0.5453    0.0000 C   0  0  0  0  0  0  0  0  0  0  0  0
    6.2134    1.0944    0.0000 O   0  0  0  0  0  0  0  0  0  0  0  0
    7.3869    0.1601    0.0000 C   0  0  0  0  0  0  0  0  0  0  0  0
    4.5952   -0.9381    0.0000 C   0  0  0  0  0  0  0  0  0  0  0  0
  1  2  1  0
  2  3  1  0
  3  4  2  0
  4  5  1  0
  5  6  1  0
  6  7  1  0
  7  8  1  0
  8  9  1  0
  9 10  1  0
 10 11  1  0
 11 12  1  0
 12 13  1  0
 13 14  1  0
 14 15  1  0
 15 16  1  0
 16 17  1  0
 17 18  1  0
 17 19  1  0
  5 20  2  0
 20 21  1  0
 21 22  1  0
 22 23  1  0
 21 24  2  0
 24  3  1  0
 17  7  1  0
 15  8  1  0
 19  9  1  0
 14 10  1  0
 19 12  1  0
 16 13  1  0
M  END
>  <ChemBL_ID>  (269) 
CHEMBL2205828

>  <Ki>  (269) 
125.0

>  <database>  (269) 
SRSLDB

$$$$

     RDKit          2D

 30 33  0  0  0  0  0  0  0  0999 V2000
   -5.8090   -3.0097    0.0000 C   0  0  0  0  0  0  0  0  0  0  0  0
   -4.4304   -2.4185    0.0000 O   0  0  0  0  0  0  0  0  0  0  0  0
   -4.2532   -0.9290    0.0000 C   0  0  0  0  0  0  0  0  0  0  0  0
   -5.4545   -0.0308    0.0000 C   0  0  0  0  0  0  0  0  0  0  0  0
   -5.2773    1.4587    0.0000 C   0  0  0  0  0  0  0  0  0  0  0  0
   -3.8987    2.0500    0.0000 C   0  0  0  0  0  0  0  0  0  0  0  0
   -3.7215    3.5395    0.0000 C   0  0  0  0  0  0  0  0  0  0  0  0
   -2.6974    1.1518    0.0000 C   0  0  0  0  0  0  0  0  0  0  0  0
   -2.8746   -0.3377    0.0000 C   0  0  0  0  0  0  0  0  0  0  0  0
   -1.6733   -1.2360    0.0000 N   0  0  0  0  0  0  0  0  0  0  0  0
   -0.2947   -0.6447    0.0000 C   0  0  0  0  0  0  0  0  0  0  0  0
   -0.1175    0.8448    0.0000 O   0  0  0  0  0  0  0  0  0  0  0  0
    0.9066   -1.5429    0.0000 O   0  0  0  0  0  0  0  0  0  0  0  0
    2.2851   -0.9517    0.0000 C   0  0  0  0  0  0  0  0  0  0  0  0
    3.4865   -1.8499    0.0000 C   0  0  0  0  0  0  0  0  0  0  0  0
    4.8650   -1.2586    0.0000 C   0  0  0  0  0  0  0  0  0  0  0  0
    6.2436   -0.6674    0.0000 C   0  0  0  0  0  0  0  0  0  0  0  0
    6.4208    0.8221    0.0000 C   0  0  0  0  0  0  0  0  0  0  0  0
    5.2195    1.7204    0.0000 C   0  0  0  0  0  0  0  0  0  0  0  0
    3.8409    1.1291    0.0000 C   0  0  0  0  0  0  0  0  0  0  0  0
    2.4624    0.5378    0.0000 C   0  0  0  0  0  0  0  0  0  0  0  0
    3.6637   -0.3604    0.0000 N   0  0  0  0  0  0  0  0  0  0  0  0
    2.2851   -0.9517    0.0000 C   0  0  0  0  0  0  0  0  0  0  0  0
    1.0838   -0.0534    0.0000 C   0  0  0  0  0  0  0  0  0  0  0  0
    1.2610    1.4361    0.0000 C   0  0  0  0  0  0  0  0  0  0  0  0
    0.0597    2.3343    0.0000 C   0  0  0  0  0  0  0  0  0  0  0  0
   -1.3188    1.7430    0.0000 C   0  0  0  0  0  0  0  0  0  0  0  0
   -1.4961    0.2535    0.0000 C   0  0  0  0  0  0  0  0  0  0  0  0
   -0.2947   -0.6447    0.0000 C   0  0  0  0  0  0  0  0  0  0  0  0
   -0.4720   -2.1342    0.0000 F   0  0  0  0  0  0  0  0  0  0  0  0
  1  2  1  0
  2  3  1  0
  3  4  2  0
  4  5  1  0
  5  6  2  0
  6  7  1  0
  6  8  1  0
  8  9  2  0
  9 10  1  0
 10 11  1  0
 11 12  2  0
 11 13  1  0
 13 14  1  0
 14 15  1  0
 15 16  1  0
 16 17  1  0
 17 18  1  0
 18 19  1  0
 19 20  1  0
 20 21  1  0
 20 22  1  0
 22 23  1  0
 23 24  1  0
 24 25  2  0
 25 26  1  0
 26 27  2  0
 27 28  1  0
 28 29  2  0
 29 30  1  0
  9  3  1  0
 21 14  1  0
 29 24  1  0
 22 16  1  0
M  END
>  <Ki>  (270) 
206.0

>  <database>  (270) 
SRSLDB

$$$$

     RDKit          2D

 19 24  0  0  0  0  0  0  0  0999 V2000
    5.6190    0.6217    0.0000 C   0  0  0  0  0  0  0  0  0  0  0  0
    5.7978   -0.8676    0.0000 C   0  0  0  0  0  0  0  0  0  0  0  0
    4.5975   -1.7671    0.0000 N   0  0  0  0  0  0  0  0  0  0  0  0
    3.2183   -1.1773    0.0000 C   0  0  0  0  0  0  0  0  0  0  0  0
    3.0395    0.3120    0.0000 C   0  0  0  0  0  0  0  0  0  0  0  0
    1.6603    0.9018    0.0000 C   0  0  0  0  0  0  0  0  0  0  0  0
    0.4599    0.0022    0.0000 N   0  0  0  0  0  0  0  0  0  0  0  0
   -0.9193    0.5920    0.0000 C   0  0  0  0  0  0  0  0  0  0  0  0
   -1.2528    2.0545    0.0000 C   0  0  0  0  0  0  0  0  0  0  0  0
   -1.7214    0.6295    0.0000 C   0  0  0  0  0  0  0  0  0  0  0  0
   -1.2630   -0.7987    0.0000 C   0  0  0  0  0  0  0  0  0  0  0  0
   -2.4796   -1.6760    0.0000 C   0  0  0  0  0  0  0  0  0  0  0  0
   -3.6900   -0.7900    0.0000 C   0  0  0  0  0  0  0  0  0  0  0  0
   -3.2214    0.6349    0.0000 C   0  0  0  0  0  0  0  0  0  0  0  0
   -3.6798    2.0631    0.0000 C   0  0  0  0  0  0  0  0  0  0  0  0
   -2.4632    2.9405    0.0000 C   0  0  0  0  0  0  0  0  0  0  0  0
   -4.5760   -2.0004    0.0000 C   0  0  0  0  0  0  0  0  0  0  0  0
   -3.3656   -2.8864    0.0000 C   0  0  0  0  0  0  0  0  0  0  0  0
    4.2398    1.2115    0.0000 C   0  0  0  0  0  0  0  0  0  0  0  0
  1  2  2  0
  2  3  1  0
  3  4  2  0
  4  5  1  0
  5  6  1  0
  6  7  1  0
  7  8  1  0
  8  9  1  0
  9 10  1  0
 10 11  1  0
 11 12  1  0
 12 13  1  0
 13 14  1  0
 14 15  1  0
 15 16  1  0
 16 17  1  0
 17 18  1  0
  5 19  2  0
 19  1  1  0
 18  8  1  0
 16  9  1  0
 14 10  1  0
 18 12  1  0
 17 13  1  0
M  END
>  <ChemBL_ID>  (271) 
CHEMBL2432047

>  <Ki>  (271) 
105.0

>  <database>  (271) 
SRSLDB

$$$$

     RDKit          2D

 22 27  0  0  0  0  0  0  0  0999 V2000
    0.1947   -3.1415    0.0000 C   0  0  0  0  0  0  0  0  0  0  0  0
    0.0237   -1.6512    0.0000 N   0  0  0  0  0  0  0  0  0  0  0  0
    1.2287   -0.7580    0.0000 C   0  0  0  0  0  0  0  0  0  0  0  0
    2.6048   -1.3549    0.0000 C   0  0  0  0  0  0  0  0  0  0  0  0
    3.8098   -0.4617    0.0000 C   0  0  0  0  0  0  0  0  0  0  0  0
    5.1859   -1.0586    0.0000 C   0  0  0  0  0  0  0  0  0  0  0  0
    6.3909   -0.1654    0.0000 C   0  0  0  0  0  0  0  0  0  0  0  0
    6.2198    1.3249    0.0000 C   0  0  0  0  0  0  0  0  0  0  0  0
    4.8437    1.9218    0.0000 C   0  0  0  0  0  0  0  0  0  0  0  0
    3.6387    1.0285    0.0000 C   0  0  0  0  0  0  0  0  0  0  0  0
   -1.8088    0.2692    0.0000 C   0  0  0  0  0  0  0  0  0  0  0  0
   -2.6442   -1.8167    0.0000 C   0  0  0  0  0  0  0  0  0  0  0  0
   -1.6513   -0.6924    0.0000 C   0  0  0  0  0  0  0  0  0  0  0  0
   -3.1154   -1.0183    0.0000 C   0  0  0  0  0  0  0  0  0  0  0  0
   -3.8778    0.2735    0.0000 C   0  0  0  0  0  0  0  0  0  0  0  0
   -4.0203   -1.2198    0.0000 C   0  0  0  0  0  0  0  0  0  0  0  0
   -3.7071    0.5300    0.0000 C   0  0  0  0  0  0  0  0  0  0  0  0
   -5.7223    0.8414    0.0000 O   0  0  0  0  0  0  0  0  0  0  0  0
   -2.2879    2.7738    0.0000 C   0  0  0  0  0  0  0  0  0  0  0  0
   -2.8849    1.3977    0.0000 C   0  0  0  0  0  0  0  0  0  0  0  0
   -1.5088    0.8008    0.0000 C   0  0  0  0  0  0  0  0  0  0  0  0
   -0.9118    2.1769    0.0000 C   0  0  0  0  0  0  0  0  0  0  0  0
  1  2  1  0
  2  3  1  0
  3  4  1  0
  4  5  1  0
  5  6  2  0
  6  7  1  0
  7  8  2  0
  8  9  1  0
  9 10  2  0
  2 11  1  0
 11 12  1  0
 12 13  1  0
 13 14  1  0
 14 15  1  0
 15 16  1  0
 16 17  1  0
 17 18  2  0
 17 19  1  0
 19 20  1  0
 20 21  1  0
 21 22  1  0
 10  5  1  0
 22 11  1  0
 16 12  1  0
 22 19  1  0
 21 13  1  0
 20 15  1  0
M  END
>  <ChemBL_ID>  (272) 
CHEMBL2432044

>  <Ki>  (272) 
172.0

>  <database>  (272) 
SRSLDB

$$$$

     RDKit          2D

 37 40  0  0  0  0  0  0  0  0999 V2000
    4.1227    0.4729    0.0000 O   0  0  0  0  0  0  0  0  0  0  0  0
    4.1422   -1.0270    0.0000 C   0  0  0  0  0  0  0  0  0  0  0  0
    5.4509   -1.7600    0.0000 C   0  0  0  0  0  0  0  0  0  0  0  0
    6.7401   -0.9931    0.0000 C   0  0  0  0  0  0  0  0  0  0  0  0
    8.0488   -1.7261    0.0000 C   0  0  0  0  0  0  0  0  0  0  0  0
    9.3379   -0.9593    0.0000 C   0  0  0  0  0  0  0  0  0  0  0  0
   10.6466   -1.6923    0.0000 C   0  0  0  0  0  0  0  0  0  0  0  0
   11.9358   -0.9254    0.0000 C   0  0  0  0  0  0  0  0  0  0  0  0
   11.9162    0.5744    0.0000 C   0  0  0  0  0  0  0  0  0  0  0  0
   10.6075    1.3074    0.0000 C   0  0  0  0  0  0  0  0  0  0  0  0
    9.3184    0.5406    0.0000 C   0  0  0  0  0  0  0  0  0  0  0  0
    2.8530   -1.7938    0.0000 O   0  0  0  0  0  0  0  0  0  0  0  0
    1.5443   -1.0608    0.0000 C   0  0  0  0  0  0  0  0  0  0  0  0
    0.2552   -1.8277    0.0000 C   0  0  0  0  0  0  0  0  0  0  0  0
   -1.0535   -1.0947    0.0000 C   0  0  0  0  0  0  0  0  0  0  0  0
   -2.3427   -1.8615    0.0000 C   0  0  0  0  0  0  0  0  0  0  0  0
   -3.6514   -1.1285    0.0000 N   0  0  0  0  0  0  0  0  0  0  0  0
   -3.6709    0.3713    0.0000 C   0  0  0  0  0  0  0  0  0  0  0  0
   -4.9796    1.1044    0.0000 C   0  0  0  0  0  0  0  0  0  0  0  0
   -6.2688    0.3375    0.0000 C   0  0  0  0  0  0  0  0  0  0  0  0
   -6.8001    1.7402    0.0000 O   0  0  0  0  0  0  0  0  0  0  0  0
   -7.7425    0.0578    0.0000 C   0  0  0  0  0  0  0  0  0  0  0  0
   -8.7215    1.1942    0.0000 C   0  0  0  0  0  0  0  0  0  0  0  0
  -10.1952    0.9145    0.0000 C   0  0  0  0  0  0  0  0  0  0  0  0
  -10.6898   -0.5016    0.0000 C   0  0  0  0  0  0  0  0  0  0  0  0
  -12.1635   -0.7813    0.0000 Cl  0  0  0  0  0  0  0  0  0  0  0  0
   -9.7108   -1.6380    0.0000 C   0  0  0  0  0  0  0  0  0  0  0  0
   -8.2371   -1.3583    0.0000 C   0  0  0  0  0  0  0  0  0  0  0  0
   -6.2492   -1.1624    0.0000 C   0  0  0  0  0  0  0  0  0  0  0  0
   -4.9405   -1.8954    0.0000 C   0  0  0  0  0  0  0  0  0  0  0  0
    1.5248    0.4390    0.0000 C   0  0  0  0  0  0  0  0  0  0  0  0
    2.8140    1.2059    0.0000 C   0  0  0  0  0  0  0  0  0  0  0  0
    2.7944    2.7058    0.0000 C   0  0  0  0  0  0  0  0  0  0  0  0
    1.4857    3.4388    0.0000 C   0  0  0  0  0  0  0  0  0  0  0  0
    1.4662    4.9387    0.0000 F   0  0  0  0  0  0  0  0  0  0  0  0
    0.1966    2.6719    0.0000 C   0  0  0  0  0  0  0  0  0  0  0  0
    0.2161    1.1721    0.0000 C   0  0  0  0  0  0  0  0  0  0  0  0
  1  2  2  0
  2  3  1  0
  3  4  1  0
  4  5  1  0
  5  6  1  0
  6  7  2  0
  7  8  1  0
  8  9  2  0
  9 10  1  0
 10 11  2  0
  2 12  1  0
 12 13  1  0
 13 14  1  6
 14 15  1  0
 15 16  1  0
 16 17  1  0
 17 18  1  0
 18 19  1  0
 19 20  1  0
 20 21  1  0
 20 22  1  0
 22 23  2  0
 23 24  1  0
 24 25  2  0
 25 26  1  0
 25 27  1  0
 27 28  2  0
 20 29  1  0
 29 30  1  0
 13 31  1  0
 31 32  2  0
 32 33  1  0
 33 34  2  0
 34 35  1  0
 34 36  1  0
 36 37  2  0
 11  6  1  0
 30 17  1  0
 37 31  1  0
 28 22  1  0
M  END
>  <Compound_Key>  (273) 
(R)-(+)-MRJF4

>  <Ki>  (273) 
52.7

>  <database>  (273) 
SRSLDB

>  <Document_ChEMBL_ID>  (273) 
10.3390/ijms22126359

$$$$

     RDKit          2D

 22 24  0  0  0  0  0  0  0  0999 V2000
    1.8603   -2.2250    0.0000 C   0  0  0  0  0  0  0  0  0  0  0  0
    1.1074   -0.9277    0.0000 C   0  0  0  0  0  0  0  0  0  0  0  0
    1.8544    0.3730    0.0000 O   0  0  0  0  0  0  0  0  0  0  0  0
    3.3544    0.3764    0.0000 C   0  0  0  0  0  0  0  0  0  0  0  0
    4.1074   -0.9209    0.0000 C   0  0  0  0  0  0  0  0  0  0  0  0
    5.6074   -0.9175    0.0000 C   0  0  0  0  0  0  0  0  0  0  0  0
    6.3544    0.3833    0.0000 C   0  0  0  0  0  0  0  0  0  0  0  0
    7.8544    0.3867    0.0000 F   0  0  0  0  0  0  0  0  0  0  0  0
    5.6015    1.6806    0.0000 C   0  0  0  0  0  0  0  0  0  0  0  0
    4.1015    1.6772    0.0000 C   0  0  0  0  0  0  0  0  0  0  0  0
   -0.3926   -0.9311    0.0000 C   0  0  0  0  0  0  0  0  0  0  0  0
   -1.1397   -2.2318    0.0000 O   0  0  0  0  0  0  0  0  0  0  0  0
   -1.1455    0.3662    0.0000 O   0  0  0  0  0  0  0  0  0  0  0  0
   -2.6455    0.3628    0.0000 C   0  0  0  0  0  0  0  0  0  0  0  0
   -3.3926   -0.9379    0.0000 C   0  0  0  0  0  0  0  0  0  0  0  0
   -4.8926   -0.9413    0.0000 C   0  0  0  0  0  0  0  0  0  0  0  0
   -6.3202   -0.4810    0.0000 C   0  0  0  0  0  0  0  0  0  0  0  0
   -6.3236    1.0190    0.0000 C   0  0  0  0  0  0  0  0  0  0  0  0
   -4.8981    1.4857    0.0000 C   0  0  0  0  0  0  0  0  0  0  0  0
   -3.3985    1.6602    0.0000 C   0  0  0  0  0  0  0  0  0  0  0  0
   -4.0137    0.2742    0.0000 N   0  0  0  0  0  0  0  0  0  0  0  0
   -3.2406    0.4689    0.0000 C   0  0  0  0  0  0  0  0  0  0  0  0
  2  1  1  1
  2  3  1  0
  3  4  1  0
  4  5  2  0
  5  6  1  0
  6  7  2  0
  7  8  1  0
  7  9  1  0
  9 10  2  0
  2 11  1  0
 11 12  2  0
 11 13  1  0
 13 14  1  0
 14 15  1  0
 15 16  1  0
 16 17  1  0
 17 18  1  0
 18 19  1  0
 19 20  1  0
 19 21  1  0
 21 22  1  0
 10  4  1  0
 20 14  1  0
 21 16  1  0
M  END
>  <ChemBL_ID>  (274) 
CHEMBL1907964

>  <Ki>  (274) 
76.0

>  <database>  (274) 
SRSLDB

$$$$

     RDKit          2D

 26 29  0  0  0  0  0  0  0  0999 V2000
    1.5807    1.1688    0.0000 O   0  0  0  0  0  0  0  0  0  0  0  0
    1.7195   -0.3248    0.0000 C   0  0  0  0  0  0  0  0  0  0  0  0
    0.4954   -1.1918    0.0000 C   0  0  0  0  0  0  0  0  0  0  0  0
   -0.8674   -0.5652    0.0000 N   0  0  0  0  0  0  0  0  0  0  0  0
   -1.0063    0.9283    0.0000 C   0  0  0  0  0  0  0  0  0  0  0  0
   -2.3691    1.5549    0.0000 C   0  0  0  0  0  0  0  0  0  0  0  0
   -3.5932    0.6879    0.0000 C   0  0  0  0  0  0  0  0  0  0  0  0
   -4.2345    2.0439    0.0000 O   0  0  0  0  0  0  0  0  0  0  0  0
   -5.0400    0.2918    0.0000 C   0  0  0  0  0  0  0  0  0  0  0  0
   -6.1063    1.3467    0.0000 C   0  0  0  0  0  0  0  0  0  0  0  0
   -7.5531    0.9506    0.0000 C   0  0  0  0  0  0  0  0  0  0  0  0
   -7.9335   -0.5004    0.0000 C   0  0  0  0  0  0  0  0  0  0  0  0
   -6.8671   -1.5552    0.0000 C   0  0  0  0  0  0  0  0  0  0  0  0
   -5.4203   -1.1592    0.0000 C   0  0  0  0  0  0  0  0  0  0  0  0
   -3.4544   -0.8057    0.0000 C   0  0  0  0  0  0  0  0  0  0  0  0
   -2.0915   -1.4322    0.0000 C   0  0  0  0  0  0  0  0  0  0  0  0
    3.0824   -0.9513    0.0000 C   0  0  0  0  0  0  0  0  0  0  0  0
    3.3766   -2.4222    0.0000 C   0  0  0  0  0  0  0  0  0  0  0  0
    4.8663   -2.5969    0.0000 N   0  0  0  0  0  0  0  0  0  0  0  0
    5.4929   -1.2340    0.0000 C   0  0  0  0  0  0  0  0  0  0  0  0
    6.9250   -0.7877    0.0000 C   0  0  0  0  0  0  0  0  0  0  0  0
    7.2545    0.6756    0.0000 C   0  0  0  0  0  0  0  0  0  0  0  0
    6.1519    1.6927    0.0000 C   0  0  0  0  0  0  0  0  0  0  0  0
    6.4814    3.1560    0.0000 O   0  0  0  0  0  0  0  0  0  0  0  0
    4.7198    1.2464    0.0000 C   0  0  0  0  0  0  0  0  0  0  0  0
    4.3903   -0.2170    0.0000 C   0  0  0  0  0  0  0  0  0  0  0  0
  1  2  2  0
  2  3  1  0
  3  4  1  0
  4  5  1  0
  5  6  1  0
  6  7  1  0
  7  8  1  0
  7  9  1  0
  9 10  2  0
 10 11  1  0
 11 12  2  0
 12 13  1  0
 13 14  2  0
  7 15  1  0
 15 16  1  0
  2 17  1  0
 17 18  2  0
 18 19  1  0
 19 20  1  0
 20 21  2  0
 21 22  1  0
 22 23  2  0
 23 24  1  0
 23 25  1  0
 25 26  2  0
 16  4  1  0
 26 17  1  0
 14  9  1  0
 26 20  1  0
M  END
>  <ChemBL_ID>  (275) 
CHEMBL3099051

>  <Ki>  (275) 
658.0

>  <database>  (275) 
SRSLDB

$$$$

     RDKit          2D

 27 30  0  0  0  0  0  0  0  0999 V2000
   -4.1116   -3.1025    0.0000 O   0  0  0  0  0  0  0  0  0  0  0  0
   -3.7258   -1.6530    0.0000 C   0  0  0  0  0  0  0  0  0  0  0  0
   -4.7883   -0.5941    0.0000 C   0  0  0  0  0  0  0  0  0  0  0  0
   -4.4026    0.8554    0.0000 C   0  0  0  0  0  0  0  0  0  0  0  0
   -5.4650    1.9143    0.0000 C   0  0  0  0  0  0  0  0  0  0  0  0
   -6.9132    1.5236    0.0000 C   0  0  0  0  0  0  0  0  0  0  0  0
   -7.9757    2.5824    0.0000 F   0  0  0  0  0  0  0  0  0  0  0  0
   -7.2990    0.0740    0.0000 C   0  0  0  0  0  0  0  0  0  0  0  0
   -6.2365   -0.9848    0.0000 C   0  0  0  0  0  0  0  0  0  0  0  0
   -2.2776   -1.2623    0.0000 C   0  0  0  0  0  0  0  0  0  0  0  0
   -1.2151   -2.3211    0.0000 C   0  0  0  0  0  0  0  0  0  0  0  0
    0.2331   -1.9304    0.0000 C   0  0  0  0  0  0  0  0  0  0  0  0
    0.6188   -0.4809    0.0000 N   0  0  0  0  0  0  0  0  0  0  0  0
    2.0671   -0.0902    0.0000 C   0  0  0  0  0  0  0  0  0  0  0  0
    3.1295   -1.1490    0.0000 C   0  0  0  0  0  0  0  0  0  0  0  0
    4.5778   -0.7583    0.0000 C   0  0  0  0  0  0  0  0  0  0  0  0
    5.6402   -1.8172    0.0000 C   0  0  0  0  0  0  0  0  0  0  0  0
    7.0884   -1.4265    0.0000 C   0  0  0  0  0  0  0  0  0  0  0  0
    7.4742    0.0231    0.0000 C   0  0  0  0  0  0  0  0  0  0  0  0
    6.4117    1.0819    0.0000 C   0  0  0  0  0  0  0  0  0  0  0  0
    6.7975    2.5315    0.0000 O   0  0  0  0  0  0  0  0  0  0  0  0
    4.9635    0.6912    0.0000 C   0  0  0  0  0  0  0  0  0  0  0  0
    3.9010    1.7501    0.0000 C   0  0  0  0  0  0  0  0  0  0  0  0
    2.4528    1.3594    0.0000 C   0  0  0  0  0  0  0  0  0  0  0  0
    1.3903    2.4182    0.0000 O   0  0  0  0  0  0  0  0  0  0  0  0
   -0.4436    0.5780    0.0000 C   0  0  0  0  0  0  0  0  0  0  0  0
   -1.8919    0.1873    0.0000 C   0  0  0  0  0  0  0  0  0  0  0  0
  1  2  2  0
  2  3  1  0
  3  4  2  0
  4  5  1  0
  5  6  2  0
  6  7  1  0
  6  8  1  0
  8  9  2  0
  2 10  1  0
 10 11  1  0
 11 12  1  0
 12 13  1  0
 13 14  1  0
 14 15  1  0
 15 16  1  0
 16 17  2  0
 17 18  1  0
 18 19  2  0
 19 20  1  0
 20 21  1  0
 20 22  2  0
 22 23  1  0
 23 24  1  0
 24 25  1  0
 13 26  1  0
 26 27  1  0
  9  3  1  0
 27 10  1  0
 24 14  1  0
 22 16  1  0
M  END
>  <Ki>  (276) 
1851.0

>  <database>  (276) 
SRSLDB

$$$$

     RDKit          2D

 21 23  0  0  0  0  0  0  0  0999 V2000
    2.2567   -2.1838    0.0000 C   0  0  0  0  0  0  0  0  0  0  0  0
    1.4906   -0.8942    0.0000 C   0  0  0  0  0  0  0  0  0  0  0  0
    2.2244    0.4141    0.0000 S   0  0  0  0  0  0  0  0  0  0  0  0
    3.7243    0.4328    0.0000 C   0  0  0  0  0  0  0  0  0  0  0  0
    4.4904   -0.8568    0.0000 C   0  0  0  0  0  0  0  0  0  0  0  0
    5.9902   -0.8382    0.0000 C   0  0  0  0  0  0  0  0  0  0  0  0
    6.7240    0.4701    0.0000 C   0  0  0  0  0  0  0  0  0  0  0  0
    5.9579    1.7597    0.0000 C   0  0  0  0  0  0  0  0  0  0  0  0
    4.4580    1.7410    0.0000 C   0  0  0  0  0  0  0  0  0  0  0  0
   -0.0093   -0.9128    0.0000 C   0  0  0  0  0  0  0  0  0  0  0  0
   -0.7431   -2.2211    0.0000 O   0  0  0  0  0  0  0  0  0  0  0  0
   -0.7754    0.3768    0.0000 O   0  0  0  0  0  0  0  0  0  0  0  0
   -2.2753    0.3581    0.0000 C   0  0  0  0  0  0  0  0  0  0  0  0
   -3.0091   -0.9502    0.0000 C   0  0  0  0  0  0  0  0  0  0  0  0
   -4.5089   -0.9688    0.0000 C   0  0  0  0  0  0  0  0  0  0  0  0
   -5.9412   -0.5231    0.0000 C   0  0  0  0  0  0  0  0  0  0  0  0
   -5.9599    0.9768    0.0000 C   0  0  0  0  0  0  0  0  0  0  0  0
   -4.5391    1.4580    0.0000 C   0  0  0  0  0  0  0  0  0  0  0  0
   -3.0414    1.6477    0.0000 C   0  0  0  0  0  0  0  0  0  0  0  0
   -3.6424    0.2556    0.0000 N   0  0  0  0  0  0  0  0  0  0  0  0
   -2.8714    0.4581    0.0000 C   0  0  0  0  0  0  0  0  0  0  0  0
  1  2  1  0
  2  3  1  0
  3  4  1  0
  4  5  2  0
  5  6  1  0
  6  7  2  0
  7  8  1  0
  8  9  2  0
  2 10  1  0
 10 11  2  0
 10 12  1  0
 12 13  1  0
 13 14  1  0
 14 15  1  0
 15 16  1  0
 16 17  1  0
 17 18  1  0
 18 19  1  0
 18 20  1  0
 20 21  1  0
  9  4  1  0
 19 13  1  0
 20 15  1  0
M  END
>  <ChemBL_ID>  (277) 
CHEMBL1199836

>  <Ki>  (277) 
317.0

>  <database>  (277) 
SRSLDB

$$$$

     RDKit          2D

 20 22  0  0  0  0  0  0  0  0999 V2000
    2.1568   -3.3732    0.0000 C   0  0  0  0  0  0  0  0  0  0  0  0
    1.6648   -1.9562    0.0000 C   0  0  0  0  0  0  0  0  0  0  0  0
    0.1916   -1.6738    0.0000 C   0  0  0  0  0  0  0  0  0  0  0  0
   -0.3004   -0.2568    0.0000 O   0  0  0  0  0  0  0  0  0  0  0  0
   -1.7736    0.0256    0.0000 C   0  0  0  0  0  0  0  0  0  0  0  0
   -2.7548   -1.1089    0.0000 C   0  0  0  0  0  0  0  0  0  0  0  0
   -4.2279   -0.8265    0.0000 C   0  0  0  0  0  0  0  0  0  0  0  0
   -5.5417   -0.1027    0.0000 C   0  0  0  0  0  0  0  0  0  0  0  0
   -5.2593    1.3705    0.0000 C   0  0  0  0  0  0  0  0  0  0  0  0
   -3.7709    1.5571    0.0000 C   0  0  0  0  0  0  0  0  0  0  0  0
   -2.2656    1.4427    0.0000 C   0  0  0  0  0  0  0  0  0  0  0  0
   -3.1335    0.1993    0.0000 N   0  0  0  0  0  0  0  0  0  0  0  0
   -2.3376    0.2431    0.0000 C   0  0  0  0  0  0  0  0  0  0  0  0
    2.6459   -0.8216    0.0000 C   0  0  0  0  0  0  0  0  0  0  0  0
    4.1191   -1.1041    0.0000 C   0  0  0  0  0  0  0  0  0  0  0  0
    5.1003    0.0305    0.0000 C   0  0  0  0  0  0  0  0  0  0  0  0
    4.6083    1.4475    0.0000 C   0  0  0  0  0  0  0  0  0  0  0  0
    5.5895    2.5821    0.0000 Br  0  0  0  0  0  0  0  0  0  0  0  0
    3.1351    1.7300    0.0000 C   0  0  0  0  0  0  0  0  0  0  0  0
    2.1539    0.5954    0.0000 C   0  0  0  0  0  0  0  0  0  0  0  0
  1  2  1  0
  2  3  1  0
  3  4  1  0
  4  5  1  0
  5  6  1  0
  6  7  1  0
  7  8  1  0
  8  9  1  0
  9 10  1  0
 10 11  1  0
 10 12  1  0
 12 13  1  0
  2 14  1  0
 14 15  2  0
 15 16  1  0
 16 17  2  0
 17 18  1  0
 17 19  1  0
 19 20  2  0
 11  5  1  0
 20 14  1  0
 12  7  1  0
M  END
>  <ChemBL_ID>  (278) 
CHEMBL1200141

>  <Ki>  (278) 
68.7

>  <database>  (278) 
SRSLDB

$$$$

     RDKit          2D

 29 32  0  0  0  0  0  0  0  0999 V2000
    4.0401   -4.5052    0.0000 O   0  0  0  0  0  0  0  0  0  0  0  0
    4.4452   -3.0610    0.0000 C   0  0  0  0  0  0  0  0  0  0  0  0
    5.8517   -2.5397    0.0000 O   0  0  0  0  0  0  0  0  0  0  0  0
    5.7907   -1.0410    0.0000 C   0  0  0  0  0  0  0  0  0  0  0  0
    6.8636    0.0073    0.0000 C   0  0  0  0  0  0  0  0  0  0  0  0
    6.4923    1.4606    0.0000 C   0  0  0  0  0  0  0  0  0  0  0  0
    7.5652    2.5088    0.0000 N   0  0  0  0  0  4  0  0  0  0  0  0
    7.1938    3.9621    0.0000 O   0  0  0  0  0  0  0  0  0  0  0  0
    9.0095    2.1037    0.0000 O   0  0  0  0  0  1  0  0  0  0  0  0
    5.0480    1.8656    0.0000 C   0  0  0  0  0  0  0  0  0  0  0  0
    3.9750    0.8174    0.0000 C   0  0  0  0  0  0  0  0  0  0  0  0
    4.3464   -0.6359    0.0000 C   0  0  0  0  0  0  0  0  0  0  0  0
    3.5148   -1.8843    0.0000 N   0  0  0  0  0  0  0  0  0  0  0  0
    2.0161   -1.9454    0.0000 C   0  0  0  0  0  0  0  0  0  0  0  0
    1.2138   -0.6780    0.0000 C   0  0  0  0  0  0  0  0  0  0  0  0
   -0.2849   -0.7390    0.0000 C   0  0  0  0  0  0  0  0  0  0  0  0
   -1.0872    0.5284    0.0000 C   0  0  0  0  0  0  0  0  0  0  0  0
   -2.5860    0.4673    0.0000 N   0  0  0  0  0  0  0  0  0  0  0  0
   -3.3882    1.7347    0.0000 C   0  0  0  0  0  0  0  0  0  0  0  0
   -4.8870    1.6737    0.0000 C   0  0  0  0  0  0  0  0  0  0  0  0
   -5.5835    0.3452    0.0000 N   0  0  0  0  0  0  0  0  0  0  0  0
   -7.0822    0.2841    0.0000 C   0  0  0  0  0  0  0  0  0  0  0  0
   -7.8845    1.5515    0.0000 C   0  0  0  0  0  0  0  0  0  0  0  0
   -9.3832    1.4905    0.0000 C   0  0  0  0  0  0  0  0  0  0  0  0
  -10.0797    0.1620    0.0000 C   0  0  0  0  0  0  0  0  0  0  0  0
   -9.2775   -1.1054    0.0000 C   0  0  0  0  0  0  0  0  0  0  0  0
   -7.7787   -1.0444    0.0000 C   0  0  0  0  0  0  0  0  0  0  0  0
   -4.7812   -0.9222    0.0000 C   0  0  0  0  0  0  0  0  0  0  0  0
   -3.2824   -0.8612    0.0000 C   0  0  0  0  0  0  0  0  0  0  0  0
  1  2  2  0
  2  3  1  0
  3  4  1  0
  4  5  2  0
  5  6  1  0
  6  7  1  0
  7  8  2  0
  7  9  1  0
  6 10  2  0
 10 11  1  0
 11 12  2  0
 12 13  1  0
 13 14  1  0
 14 15  1  0
 15 16  1  0
 16 17  1  0
 17 18  1  0
 18 19  1  0
 19 20  1  0
 20 21  1  0
 21 22  1  0
 22 23  1  0
 23 24  1  0
 24 25  1  0
 25 26  1  0
 26 27  1  0
 21 28  1  0
 28 29  1  0
 13  2  1  0
 29 18  1  0
 12  4  1  0
 27 22  1  0
M  CHG  2   7   1   9  -1
M  END
>  <Ki>  (279) 
2.46

>  <database>  (279) 
SRSLDB

$$$$

     RDKit          2D

 28 31  0  0  0  0  0  0  0  0999 V2000
    5.4930    3.1613    0.0000 C   0  0  0  0  0  0  0  0  0  0  0  0
    4.1240    2.5481    0.0000 O   0  0  0  0  0  0  0  0  0  0  0  0
    3.9706    1.0560    0.0000 C   0  0  0  0  0  0  0  0  0  0  0  0
    5.1860    0.1770    0.0000 C   0  0  0  0  0  0  0  0  0  0  0  0
    5.0326   -1.3151    0.0000 C   0  0  0  0  0  0  0  0  0  0  0  0
    3.6636   -1.9282    0.0000 C   0  0  0  0  0  0  0  0  0  0  0  0
    3.5101   -3.4204    0.0000 C   0  0  0  0  0  0  0  0  0  0  0  0
    2.4481   -1.0493    0.0000 C   0  0  0  0  0  0  0  0  0  0  0  0
    2.6016    0.4429    0.0000 C   0  0  0  0  0  0  0  0  0  0  0  0
    1.3861    1.3218    0.0000 N   0  0  0  0  0  0  0  0  0  0  0  0
    0.0172    0.7087    0.0000 C   0  0  0  0  0  0  0  0  0  0  0  0
   -0.1363   -0.7834    0.0000 O   0  0  0  0  0  0  0  0  0  0  0  0
   -1.1983    1.5877    0.0000 O   0  0  0  0  0  0  0  0  0  0  0  0
   -2.5673    0.9745    0.0000 C   0  0  0  0  0  0  0  0  0  0  0  0
   -2.7208   -0.5176    0.0000 C   0  0  0  0  0  0  0  0  0  0  0  0
   -4.0897   -1.1307    0.0000 C   0  0  0  0  0  0  0  0  0  0  0  0
   -5.5812   -1.2909    0.0000 C   0  0  0  0  0  0  0  0  0  0  0  0
   -6.1943    0.0781    0.0000 C   0  0  0  0  0  0  0  0  0  0  0  0
   -5.0818    1.0843    0.0000 C   0  0  0  0  0  0  0  0  0  0  0  0
   -3.7828    1.8535    0.0000 C   0  0  0  0  0  0  0  0  0  0  0  0
   -3.7811    0.3372    0.0000 N   0  0  0  0  0  0  0  0  0  0  0  0
   -2.4122    0.9503    0.0000 C   0  0  0  0  0  0  0  0  0  0  0  0
   -1.1967    0.0713    0.0000 C   0  0  0  0  0  0  0  0  0  0  0  0
   -1.3502   -1.4208    0.0000 C   0  0  0  0  0  0  0  0  0  0  0  0
   -0.1347   -2.2998    0.0000 C   0  0  0  0  0  0  0  0  0  0  0  0
    1.2343   -1.6866    0.0000 C   0  0  0  0  0  0  0  0  0  0  0  0
    1.3878   -0.1945    0.0000 C   0  0  0  0  0  0  0  0  0  0  0  0
    0.1723    0.6845    0.0000 C   0  0  0  0  0  0  0  0  0  0  0  0
  1  2  1  0
  2  3  1  0
  3  4  2  0
  4  5  1  0
  5  6  2  0
  6  7  1  0
  6  8  1  0
  8  9  2  0
  9 10  1  0
 10 11  1  0
 11 12  2  0
 11 13  1  0
 13 14  1  0
 14 15  1  0
 15 16  1  0
 16 17  1  0
 17 18  1  0
 18 19  1  0
 19 20  1  0
 19 21  1  0
 21 22  1  0
 22 23  1  0
 23 24  2  0
 24 25  1  0
 25 26  2  0
 26 27  1  0
 27 28  2  0
  9  3  1  0
 20 14  1  0
 28 23  1  0
 21 16  1  0
M  END
>  <Ki>  (280) 
3.2

>  <database>  (280) 
SRSLDB

$$$$

     RDKit          2D

 24 29  0  0  0  0  0  0  0  0999 V2000
   -0.3073   -2.6873    0.0000 C   0  0  0  0  0  0  0  0  0  0  0  0
   -0.7098   -1.2423    0.0000 N   0  0  0  0  0  0  0  0  0  0  0  0
    0.3403   -0.1712    0.0000 C   0  0  0  0  0  0  0  0  0  0  0  0
    1.7930   -0.5451    0.0000 C   0  0  0  0  0  0  0  0  0  0  0  0
    2.8431    0.5260    0.0000 C   0  0  0  0  0  0  0  0  0  0  0  0
    4.2958    0.1521    0.0000 C   0  0  0  0  0  0  0  0  0  0  0  0
    4.6983   -1.2929    0.0000 C   0  0  0  0  0  0  0  0  0  0  0  0
    6.1509   -1.6668    0.0000 C   0  0  0  0  0  0  0  0  0  0  0  0
    7.2011   -0.5957    0.0000 C   0  0  0  0  0  0  0  0  0  0  0  0
    6.7986    0.8492    0.0000 C   0  0  0  0  0  0  0  0  0  0  0  0
    7.8487    1.9203    0.0000 F   0  0  0  0  0  0  0  0  0  0  0  0
    5.3459    1.2231    0.0000 C   0  0  0  0  0  0  0  0  0  0  0  0
   -2.8206    0.3673    0.0000 C   0  0  0  0  0  0  0  0  0  0  0  0
   -3.3188   -1.8238    0.0000 C   0  0  0  0  0  0  0  0  0  0  0  0
   -2.5143   -0.5578    0.0000 C   0  0  0  0  0  0  0  0  0  0  0  0
   -3.9093   -1.1091    0.0000 C   0  0  0  0  0  0  0  0  0  0  0  0
   -4.8647    0.0472    0.0000 C   0  0  0  0  0  0  0  0  0  0  0  0
   -4.7714   -1.4499    0.0000 C   0  0  0  0  0  0  0  0  0  0  0  0
   -4.7363    0.3273    0.0000 C   0  0  0  0  0  0  0  0  0  0  0  0
   -6.7754    0.3190    0.0000 O   0  0  0  0  0  0  0  0  0  0  0  0
   -3.6863    2.7659    0.0000 C   0  0  0  0  0  0  0  0  0  0  0  0
   -4.0602    1.3132    0.0000 C   0  0  0  0  0  0  0  0  0  0  0  0
   -2.6076    0.9393    0.0000 C   0  0  0  0  0  0  0  0  0  0  0  0
   -2.2337    2.3920    0.0000 C   0  0  0  0  0  0  0  0  0  0  0  0
  1  2  1  0
  2  3  1  0
  3  4  1  0
  4  5  1  0
  5  6  1  0
  6  7  2  0
  7  8  1  0
  8  9  2  0
  9 10  1  0
 10 11  1  0
 10 12  2  0
 13  2  1  6
 13 14  1  0
 14 15  1  0
 15 16  1  0
 16 17  1  0
 17 18  1  0
 18 19  1  0
 19 20  2  0
 19 21  1  0
 21 22  1  0
 22 23  1  0
 23 24  1  0
 12  6  1  0
 24 13  1  0
 18 14  1  0
 24 21  1  0
 23 15  1  0
 22 17  1  0
M  END
>  <ChemBL_ID>  (281) 
CHEMBL2432054

>  <Ki>  (281) 
30.0

>  <database>  (281) 
SRSLDB

$$$$

     RDKit          2D

 28 31  0  0  0  0  0  0  0  0999 V2000
    6.8288   -3.6643    0.0000 O   0  0  0  0  0  0  0  0  0  0  0  0
    6.9768   -2.1716    0.0000 C   0  0  0  0  0  0  0  0  0  0  0  0
    8.2714   -1.4140    0.0000 S   0  0  0  0  0  0  0  0  0  0  0  0
    7.9510    0.0514    0.0000 C   0  0  0  0  0  0  0  0  0  0  0  0
    8.8255    1.2700    0.0000 C   0  0  0  0  0  0  0  0  0  0  0  0
    8.2074    2.6368    0.0000 C   0  0  0  0  0  0  0  0  0  0  0  0
    6.7147    2.7848    0.0000 C   0  0  0  0  0  0  0  0  0  0  0  0
    5.8402    1.5661    0.0000 C   0  0  0  0  0  0  0  0  0  0  0  0
    6.4583    0.1994    0.0000 C   0  0  0  0  0  0  0  0  0  0  0  0
    5.8562   -1.1744    0.0000 N   0  0  0  0  0  0  0  0  0  0  0  0
    4.3909   -1.4949    0.0000 C   0  0  0  0  0  0  0  0  0  0  0  0
    3.3807   -0.3861    0.0000 C   0  0  0  0  0  0  0  0  0  0  0  0
    1.9153   -0.7065    0.0000 C   0  0  0  0  0  0  0  0  0  0  0  0
    0.9051    0.4023    0.0000 C   0  0  0  0  0  0  0  0  0  0  0  0
   -0.5603    0.0818    0.0000 C   0  0  0  0  0  0  0  0  0  0  0  0
   -1.5705    1.1906    0.0000 C   0  0  0  0  0  0  0  0  0  0  0  0
   -3.0359    0.8702    0.0000 N   0  0  0  0  0  0  0  0  0  0  0  0
   -4.0461    1.9790    0.0000 C   0  0  0  0  0  0  0  0  0  0  0  0
   -5.5114    1.6585    0.0000 C   0  0  0  0  0  0  0  0  0  0  0  0
   -5.9666    0.2293    0.0000 N   0  0  0  0  0  0  0  0  0  0  0  0
   -7.4320   -0.0912    0.0000 C   0  0  0  0  0  0  0  0  0  0  0  0
   -8.4422    1.0176    0.0000 C   0  0  0  0  0  0  0  0  0  0  0  0
   -9.9076    0.6972    0.0000 C   0  0  0  0  0  0  0  0  0  0  0  0
  -10.3627   -0.7321    0.0000 C   0  0  0  0  0  0  0  0  0  0  0  0
   -9.3525   -1.8409    0.0000 C   0  0  0  0  0  0  0  0  0  0  0  0
   -7.8871   -1.5205    0.0000 C   0  0  0  0  0  0  0  0  0  0  0  0
   -4.9564   -0.8795    0.0000 C   0  0  0  0  0  0  0  0  0  0  0  0
   -3.4910   -0.5591    0.0000 C   0  0  0  0  0  0  0  0  0  0  0  0
  1  2  2  0
  2  3  1  0
  3  4  1  0
  4  5  2  0
  5  6  1  0
  6  7  2  0
  7  8  1  0
  8  9  2  0
  9 10  1  0
 10 11  1  0
 11 12  1  0
 12 13  1  0
 13 14  1  0
 14 15  1  0
 15 16  1  0
 16 17  1  0
 17 18  1  0
 18 19  1  0
 19 20  1  0
 20 21  1  0
 21 22  1  0
 22 23  1  0
 23 24  1  0
 24 25  1  0
 25 26  1  0
 20 27  1  0
 27 28  1  0
 10  2  1  0
 28 17  1  0
  9  4  1  0
 26 21  1  0
M  END
>  <ChemBL_ID>  (282) 
CHEMBL272608

>  <Ki>  (282) 
1.49

>  <database>  (282) 
SRSLDB

$$$$

     RDKit          2D

 30 33  0  0  0  0  0  0  0  0999 V2000
   -5.6635   -3.3049    0.0000 C   0  0  0  0  0  0  0  0  0  0  0  0
   -4.2994   -2.6810    0.0000 O   0  0  0  0  0  0  0  0  0  0  0  0
   -4.1578   -1.1877    0.0000 C   0  0  0  0  0  0  0  0  0  0  0  0
   -5.3802   -0.3183    0.0000 C   0  0  0  0  0  0  0  0  0  0  0  0
   -5.2385    1.1750    0.0000 C   0  0  0  0  0  0  0  0  0  0  0  0
   -3.8744    1.7989    0.0000 C   0  0  0  0  0  0  0  0  0  0  0  0
   -3.7328    3.2922    0.0000 C   0  0  0  0  0  0  0  0  0  0  0  0
   -2.6520    0.9296    0.0000 C   0  0  0  0  0  0  0  0  0  0  0  0
   -2.7937   -0.5637    0.0000 C   0  0  0  0  0  0  0  0  0  0  0  0
   -1.5713   -1.4330    0.0000 N   0  0  0  0  0  0  0  0  0  0  0  0
   -0.2072   -0.8090    0.0000 C   0  0  0  0  0  0  0  0  0  0  0  0
   -0.0656    0.6843    0.0000 O   0  0  0  0  0  0  0  0  0  0  0  0
    1.0152   -1.6784    0.0000 O   0  0  0  0  0  0  0  0  0  0  0  0
    2.3792   -1.0544    0.0000 C   0  0  0  0  0  0  0  0  0  0  0  0
    3.6016   -1.9237    0.0000 C   0  0  0  0  0  0  0  0  0  0  0  0
    4.9657   -1.2998    0.0000 C   0  0  0  0  0  0  0  0  0  0  0  0
    6.3298   -0.6758    0.0000 C   0  0  0  0  0  0  0  0  0  0  0  0
    6.4714    0.8175    0.0000 C   0  0  0  0  0  0  0  0  0  0  0  0
    5.2490    1.6868    0.0000 C   0  0  0  0  0  0  0  0  0  0  0  0
    3.8849    1.0629    0.0000 C   0  0  0  0  0  0  0  0  0  0  0  0
    2.5209    0.4389    0.0000 C   0  0  0  0  0  0  0  0  0  0  0  0
    3.7433   -0.4304    0.0000 N   0  0  0  0  0  0  0  0  0  0  0  0
    2.3792   -1.0544    0.0000 C   0  0  0  0  0  0  0  0  0  0  0  0
    1.1568   -0.1851    0.0000 C   0  0  0  0  0  0  0  0  0  0  0  0
    1.2985    1.3082    0.0000 C   0  0  0  0  0  0  0  0  0  0  0  0
    0.0761    2.1775    0.0000 C   0  0  0  0  0  0  0  0  0  0  0  0
   -1.2880    1.5536    0.0000 C   0  0  0  0  0  0  0  0  0  0  0  0
   -2.5104    2.4229    0.0000 F   0  0  0  0  0  0  0  0  0  0  0  0
   -1.4296    0.0603    0.0000 N   0  0  0  0  0  0  0  0  0  0  0  0
   -0.2072   -0.8090    0.0000 C   0  0  0  0  0  0  0  0  0  0  0  0
  1  2  1  0
  2  3  1  0
  3  4  2  0
  4  5  1  0
  5  6  2  0
  6  7  1  0
  6  8  1  0
  8  9  2  0
  9 10  1  0
 10 11  1  0
 11 12  2  0
 11 13  1  0
 13 14  1  0
 14 15  1  0
 15 16  1  0
 16 17  1  0
 17 18  1  0
 18 19  1  0
 19 20  1  0
 20 21  1  0
 20 22  1  0
 22 23  1  0
 23 24  1  0
 24 25  2  0
 25 26  1  0
 26 27  2  0
 27 28  1  0
 27 29  1  0
 29 30  2  0
  9  3  1  0
 21 14  1  0
 30 24  1  0
 22 16  1  0
M  END
>  <ChemBL_ID>  (283) 
CHEMBL479260

>  <Ki>  (283) 
571.5

>  <database>  (283) 
SRSLDB

$$$$

     RDKit          2D

 30 33  0  0  0  0  0  0  0  0999 V2000
    9.3861   -3.2751    0.0000 C   0  0  0  0  0  0  0  0  0  0  0  0
    9.1856   -1.7885    0.0000 C   0  0  0  0  0  0  0  0  0  0  0  0
   10.3727   -0.8716    0.0000 O   0  0  0  0  0  0  0  0  0  0  0  0
    7.7979   -1.2189    0.0000 C   0  0  0  0  0  0  0  0  0  0  0  0
    6.6108   -2.1358    0.0000 C   0  0  0  0  0  0  0  0  0  0  0  0
    5.2232   -1.5662    0.0000 C   0  0  0  0  0  0  0  0  0  0  0  0
    5.0227   -0.0797    0.0000 C   0  0  0  0  0  0  0  0  0  0  0  0
    6.2098    0.8372    0.0000 C   0  0  0  0  0  0  0  0  0  0  0  0
    7.5974    0.2676    0.0000 C   0  0  0  0  0  0  0  0  0  0  0  0
    5.7046    2.2496    0.0000 O   0  0  0  0  0  0  0  0  0  0  0  0
    4.2052    2.2056    0.0000 C   0  0  0  0  0  0  0  0  0  0  0  0
    3.2883    3.3927    0.0000 O   0  0  0  0  0  0  0  0  0  0  0  0
    3.7838    0.7660    0.0000 N   0  0  0  0  0  0  0  0  0  0  0  0
    2.3714    0.2608    0.0000 C   0  0  0  0  0  0  0  0  0  0  0  0
    1.2277    1.2313    0.0000 C   0  0  0  0  0  0  0  0  0  0  0  0
   -0.1846    0.7261    0.0000 C   0  0  0  0  0  0  0  0  0  0  0  0
   -1.3283    1.6967    0.0000 C   0  0  0  0  0  0  0  0  0  0  0  0
   -2.7407    1.1915    0.0000 N   0  0  0  0  0  0  0  0  0  0  0  0
   -3.8844    2.1620    0.0000 C   0  0  0  0  0  0  0  0  0  0  0  0
   -5.2968    1.6568    0.0000 C   0  0  0  0  0  0  0  0  0  0  0  0
   -5.5654    0.1811    0.0000 C   0  0  0  0  0  0  0  0  0  0  0  0
   -6.9778   -0.3241    0.0000 C   0  0  0  0  0  0  0  0  0  0  0  0
   -8.1215    0.6464    0.0000 C   0  0  0  0  0  0  0  0  0  0  0  0
   -9.5339    0.1412    0.0000 C   0  0  0  0  0  0  0  0  0  0  0  0
   -9.8025   -1.3345    0.0000 C   0  0  0  0  0  0  0  0  0  0  0  0
  -11.2149   -1.8397    0.0000 F   0  0  0  0  0  0  0  0  0  0  0  0
   -8.6588   -2.3050    0.0000 C   0  0  0  0  0  0  0  0  0  0  0  0
   -7.2465   -1.7998    0.0000 C   0  0  0  0  0  0  0  0  0  0  0  0
   -4.4217   -0.7895    0.0000 C   0  0  0  0  0  0  0  0  0  0  0  0
   -3.0094   -0.2843    0.0000 C   0  0  0  0  0  0  0  0  0  0  0  0
  1  2  1  0
  2  3  2  0
  2  4  1  0
  4  5  2  0
  5  6  1  0
  6  7  2  0
  7  8  1  0
  8  9  2  0
  8 10  1  0
 10 11  1  0
 11 12  2  0
 11 13  1  0
 13 14  1  0
 14 15  1  0
 15 16  1  0
 16 17  1  0
 17 18  1  0
 18 19  1  0
 19 20  1  0
 20 21  2  0
 21 22  1  0
 22 23  2  0
 23 24  1  0
 24 25  2  0
 25 26  1  0
 25 27  1  0
 27 28  2  0
 21 29  1  0
 29 30  1  0
  9  4  1  0
 30 18  1  0
 13  7  1  0
 28 22  1  0
M  END
>  <Ki>  (284) 
0.66

>  <database>  (284) 
SRSLDB

$$$$

     RDKit          2D

 37 40  0  0  0  0  0  0  0  0999 V2000
   -3.4990   -2.7966    0.0000 C   0  0  0  0  0  0  0  0  0  0  0  0
   -2.1106   -2.2288    0.0000 O   0  0  0  0  0  0  0  0  0  0  0  0
   -1.9082   -0.7425    0.0000 C   0  0  0  0  0  0  0  0  0  0  0  0
   -3.0942    0.1759    0.0000 C   0  0  0  0  0  0  0  0  0  0  0  0
   -2.8917    1.6622    0.0000 C   0  0  0  0  0  0  0  0  0  0  0  0
   -1.5034    2.2300    0.0000 C   0  0  0  0  0  0  0  0  0  0  0  0
   -1.3010    3.7163    0.0000 C   0  0  0  0  0  0  0  0  0  0  0  0
   -0.3174    1.3116    0.0000 C   0  0  0  0  0  0  0  0  0  0  0  0
   -0.5199   -0.1747    0.0000 C   0  0  0  0  0  0  0  0  0  0  0  0
    0.6661   -1.0931    0.0000 N   0  0  0  0  0  0  0  0  0  0  0  0
    2.0545   -0.5253    0.0000 C   0  0  0  0  0  0  0  0  0  0  0  0
    2.2569    0.9610    0.0000 O   0  0  0  0  0  0  0  0  0  0  0  0
    3.2404   -1.4437    0.0000 O   0  0  0  0  0  0  0  0  0  0  0  0
    4.6288   -0.8759    0.0000 C   0  0  0  0  0  0  0  0  0  0  0  0
    5.8147   -1.7943    0.0000 C   0  0  0  0  0  0  0  0  0  0  0  0
    7.2031   -1.2265    0.0000 C   0  0  0  0  0  0  0  0  0  0  0  0
    8.5914   -0.6587    0.0000 C   0  0  0  0  0  0  0  0  0  0  0  0
    8.7939    0.8276    0.0000 C   0  0  0  0  0  0  0  0  0  0  0  0
    7.6079    1.7460    0.0000 C   0  0  0  0  0  0  0  0  0  0  0  0
    6.2196    1.1782    0.0000 C   0  0  0  0  0  0  0  0  0  0  0  0
    4.8312    0.6104    0.0000 C   0  0  0  0  0  0  0  0  0  0  0  0
    6.0171   -0.3081    0.0000 N   0  0  0  0  0  0  0  0  0  0  0  0
    4.6288   -0.8759    0.0000 C   0  0  0  0  0  0  0  0  0  0  0  0
    3.4428    0.0425    0.0000 C   0  0  0  0  0  0  0  0  0  0  0  0
    2.0545   -0.5253    0.0000 C   0  0  0  0  0  0  0  0  0  0  0  0
    0.8685    0.3931    0.0000 C   0  0  0  0  0  0  0  0  0  0  0  0
   -0.5199   -0.1747    0.0000 C   0  0  0  0  0  0  0  0  0  0  0  0
   -1.7058    0.7438    0.0000 C   0  0  0  0  0  0  0  0  0  0  0  0
   -3.0942    0.1759    0.0000 N   0  0  0  0  0  0  0  0  0  0  0  0
   -4.2801    1.0944    0.0000 C   0  0  0  0  0  0  0  0  0  0  0  0
   -5.6685    0.5265    0.0000 C   0  0  0  0  0  0  0  0  0  0  0  0
   -6.8544    1.4450    0.0000 C   0  0  0  0  0  0  0  0  0  0  0  0
   -8.2428    0.8771    0.0000 C   0  0  0  0  0  0  0  0  0  0  0  0
   -8.4452   -0.6091    0.0000 C   0  0  0  0  0  0  0  0  0  0  0  0
   -9.8336   -1.1770    0.0000 Br  0  0  0  0  0  0  0  0  0  0  0  0
   -7.2593   -1.5276    0.0000 C   0  0  0  0  0  0  0  0  0  0  0  0
   -5.8709   -0.9597    0.0000 C   0  0  0  0  0  0  0  0  0  0  0  0
  1  2  1  0
  2  3  1  0
  3  4  2  0
  4  5  1  0
  5  6  2  0
  6  7  1  0
  6  8  1  0
  8  9  2  0
  9 10  1  0
 10 11  1  0
 11 12  2  0
 11 13  1  0
 13 14  1  0
 14 15  1  0
 15 16  1  0
 16 17  1  0
 17 18  1  0
 18 19  1  0
 19 20  1  0
 20 21  1  0
 20 22  1  0
 22 23  1  0
 23 24  1  0
 24 25  1  0
 25 26  1  0
 26 27  1  0
 27 28  1  0
 28 29  1  0
 29 30  1  0
 30 31  1  0
 31 32  2  0
 32 33  1  0
 33 34  2  0
 34 35  1  0
 34 36  1  0
 36 37  2  0
  9  3  1  0
 21 14  1  0
 37 31  1  0
 22 16  1  0
M  END
>  <Ki>  (285) 
9.93

>  <database>  (285) 
SRSLDB

$$$$

     RDKit          2D

 30 33  0  0  0  0  0  0  0  0999 V2000
    6.2491   -2.3993    0.0000 C   0  0  0  0  0  0  0  0  0  0  0  0
    6.1847   -0.9006    0.0000 O   0  0  0  0  0  0  0  0  0  0  0  0
    4.8547   -0.2071    0.0000 C   0  0  0  0  0  0  0  0  0  0  0  0
    3.5890   -1.0122    0.0000 C   0  0  0  0  0  0  0  0  0  0  0  0
    2.2590   -0.3187    0.0000 C   0  0  0  0  0  0  0  0  0  0  0  0
    0.9933   -1.1238    0.0000 O   0  0  0  0  0  0  0  0  0  0  0  0
    1.0578   -2.6224    0.0000 C   0  0  0  0  0  0  0  0  0  0  0  0
    2.1946    1.1799    0.0000 C   0  0  0  0  0  0  0  0  0  0  0  0
    0.8645    1.8735    0.0000 N   0  0  0  0  0  0  0  0  0  0  0  0
   -0.4011    1.0684    0.0000 C   0  0  0  0  0  0  0  0  0  0  0  0
   -0.3367   -0.4302    0.0000 O   0  0  0  0  0  0  0  0  0  0  0  0
   -1.7312    1.7619    0.0000 O   0  0  0  0  0  0  0  0  0  0  0  0
   -2.9968    0.9568    0.0000 C   0  0  0  0  0  0  0  0  0  0  0  0
   -2.9324   -0.5418    0.0000 C   0  0  0  0  0  0  0  0  0  0  0  0
   -4.1980   -1.3469    0.0000 C   0  0  0  0  0  0  0  0  0  0  0  0
   -5.6505   -1.7215    0.0000 C   0  0  0  0  0  0  0  0  0  0  0  0
   -6.4556   -0.4558    0.0000 C   0  0  0  0  0  0  0  0  0  0  0  0
   -5.5007    0.7010    0.0000 C   0  0  0  0  0  0  0  0  0  0  0  0
   -4.3268    1.6503    0.0000 C   0  0  0  0  0  0  0  0  0  0  0  0
   -4.1054    0.1503    0.0000 N   0  0  0  0  0  0  0  0  0  0  0  0
   -2.8398    0.9553    0.0000 C   0  0  0  0  0  0  0  0  0  0  0  0
   -1.5097    0.2618    0.0000 C   0  0  0  0  0  0  0  0  0  0  0  0
   -1.4453   -1.2368    0.0000 C   0  0  0  0  0  0  0  0  0  0  0  0
   -0.1153   -1.9303    0.0000 C   0  0  0  0  0  0  0  0  0  0  0  0
    1.1503   -1.1252    0.0000 C   0  0  0  0  0  0  0  0  0  0  0  0
    1.0859    0.3734    0.0000 C   0  0  0  0  0  0  0  0  0  0  0  0
   -0.2441    1.0669    0.0000 C   0  0  0  0  0  0  0  0  0  0  0  0
    3.4602    1.9850    0.0000 C   0  0  0  0  0  0  0  0  0  0  0  0
    4.7903    1.2915    0.0000 C   0  0  0  0  0  0  0  0  0  0  0  0
    6.0559    2.0966    0.0000 Cl  0  0  0  0  0  0  0  0  0  0  0  0
  1  2  1  0
  2  3  1  0
  3  4  2  0
  4  5  1  0
  5  6  1  0
  6  7  1  0
  5  8  2  0
  8  9  1  0
  9 10  1  0
 10 11  2  0
 10 12  1  0
 12 13  1  0
 13 14  1  0
 14 15  1  0
 15 16  1  0
 16 17  1  0
 17 18  1  0
 18 19  1  0
 18 20  1  0
 20 21  1  0
 21 22  1  0
 22 23  2  0
 23 24  1  0
 24 25  2  0
 25 26  1  0
 26 27  2  0
  8 28  1  0
 28 29  2  0
 29 30  1  0
 29  3  1  0
 19 13  1  0
 27 22  1  0
 20 15  1  0
M  END
>  <Ki>  (286) 
7.3

>  <database>  (286) 
SRSLDB

$$$$

     RDKit          2D

 32 36  0  0  0  0  0  0  0  0999 V2000
   -8.0887   -2.4713    0.0000 C   0  0  0  0  0  0  0  0  0  0  0  0
   -6.6491   -2.8926    0.0000 O   0  0  0  0  0  0  0  0  0  0  0  0
   -5.5644   -1.8566    0.0000 C   0  0  0  0  0  0  0  0  0  0  0  0
   -5.9193   -0.3992    0.0000 C   0  0  0  0  0  0  0  0  0  0  0  0
   -4.8346    0.6369    0.0000 C   0  0  0  0  0  0  0  0  0  0  0  0
   -3.3950    0.2156    0.0000 C   0  0  0  0  0  0  0  0  0  0  0  0
   -3.0401   -1.2418    0.0000 C   0  0  0  0  0  0  0  0  0  0  0  0
   -4.1248   -2.2779    0.0000 C   0  0  0  0  0  0  0  0  0  0  0  0
   -3.7699   -3.7353    0.0000 O   0  0  0  0  0  0  0  0  0  0  0  0
   -2.3303   -4.1567    0.0000 C   0  0  0  0  0  0  0  0  0  0  0  0
   -2.3103    1.2516    0.0000 C   0  0  0  0  0  0  0  0  0  0  0  0
   -2.6652    2.7090    0.0000 N   0  0  0  0  0  0  0  0  0  0  0  0
   -1.5805    3.7451    0.0000 C   0  0  0  0  0  0  0  0  0  0  0  0
   -0.1409    3.3238    0.0000 C   0  0  0  0  0  0  0  0  0  0  0  0
    0.2140    1.8664    0.0000 C   0  0  0  0  0  0  0  0  0  0  0  0
    1.6536    1.4450    0.0000 C   0  0  0  0  0  0  0  0  0  0  0  0
    2.7383    2.4811    0.0000 N   0  0  0  0  0  0  0  0  0  0  0  0
    4.1779    2.0597    0.0000 C   0  0  0  0  0  0  0  0  0  0  0  0
    5.2626    3.0958    0.0000 O   0  0  0  0  0  0  0  0  0  0  0  0
    4.5328    0.6023    0.0000 C   0  0  0  0  0  0  0  0  0  0  0  0
    3.5624   -0.5414    0.0000 C   0  0  0  0  0  0  0  0  0  0  0  0
    4.3503   -1.8178    0.0000 C   0  0  0  0  0  0  0  0  0  0  0  0
    3.9289   -3.2575    0.0000 C   0  0  0  0  0  0  0  0  0  0  0  0
    4.9650   -4.3422    0.0000 C   0  0  0  0  0  0  0  0  0  0  0  0
    6.4224   -3.9872    0.0000 C   0  0  0  0  0  0  0  0  0  0  0  0
    6.8437   -2.5476    0.0000 C   0  0  0  0  0  0  0  0  0  0  0  0
    5.8077   -1.4629    0.0000 C   0  0  0  0  0  0  0  0  0  0  0  0
    5.9205    0.0328    0.0000 N   0  0  0  0  0  0  0  0  0  0  0  0
    2.3834    3.9385    0.0000 C   0  0  0  0  0  0  0  0  0  0  0  0
    0.9438    4.3598    0.0000 C   0  0  0  0  0  0  0  0  0  0  0  0
   -4.1048    3.1304    0.0000 C   0  0  0  0  0  0  0  0  0  0  0  0
   -5.1895    2.0943    0.0000 C   0  0  0  0  0  0  0  0  0  0  0  0
  1  2  1  0
  2  3  1  0
  3  4  2  0
  4  5  1  0
  5  6  2  0
  6  7  1  0
  7  8  2  0
  8  9  1  0
  9 10  1  0
  6 11  1  0
 11 12  1  0
 12 13  1  0
 13 14  1  0
 14 15  1  0
 15 16  1  0
 16 17  1  0
 17 18  1  0
 18 19  2  0
 18 20  1  0
 20 21  2  0
 21 22  1  0
 22 23  2  0
 23 24  1  0
 24 25  2  0
 25 26  1  0
 26 27  2  0
 27 28  1  0
 17 29  1  0
 29 30  1  0
 12 31  1  0
 31 32  1  0
  8  3  1  0
 30 14  1  0
 32  5  1  0
 28 20  1  0
 27 22  1  0
M  END
>  <Ki>  (287) 
88.0

>  <database>  (287) 
SRSLDB

$$$$

     RDKit          2D

 26 29  0  0  0  0  0  0  0  0999 V2000
   -5.6445    2.9619    0.0000 O   0  0  0  0  0  0  0  0  0  0  0  0
   -5.4433    1.4755    0.0000 C   0  0  0  0  0  0  0  0  0  0  0  0
   -6.6300    0.5580    0.0000 C   0  0  0  0  0  0  0  0  0  0  0  0
   -6.4288   -0.9284    0.0000 C   0  0  0  0  0  0  0  0  0  0  0  0
   -5.0408   -1.4974    0.0000 C   0  0  0  0  0  0  0  0  0  0  0  0
   -4.8396   -2.9838    0.0000 C   0  0  0  0  0  0  0  0  0  0  0  0
   -3.4517   -3.5528    0.0000 C   0  0  0  0  0  0  0  0  0  0  0  0
   -2.2650   -2.6353    0.0000 C   0  0  0  0  0  0  0  0  0  0  0  0
   -2.4663   -1.1489    0.0000 N   0  0  0  0  0  0  0  0  0  0  0  0
   -3.8542   -0.5799    0.0000 C   0  0  0  0  0  0  0  0  0  0  0  0
   -4.0554    0.9065    0.0000 N   0  0  0  0  0  0  0  0  0  0  0  0
   -2.8687    1.8240    0.0000 C   0  0  0  0  0  0  0  0  0  0  0  0
   -1.4808    1.2550    0.0000 C   0  0  0  0  0  0  0  0  0  0  0  0
   -0.2941    2.1725    0.0000 C   0  0  0  0  0  0  0  0  0  0  0  0
    1.0938    1.6035    0.0000 N   0  0  0  0  0  0  0  0  0  0  0  0
    1.2950    0.1171    0.0000 C   0  0  0  0  0  0  0  0  0  0  0  0
    2.6829   -0.4519    0.0000 C   0  0  0  0  0  0  0  0  0  0  0  0
    3.8696    0.4656    0.0000 N   0  0  0  0  0  0  0  0  0  0  0  0
    5.2575   -0.1034    0.0000 C   0  0  0  0  0  0  0  0  0  0  0  0
    5.4587   -1.5898    0.0000 C   0  0  0  0  0  0  0  0  0  0  0  0
    6.8466   -2.1588    0.0000 C   0  0  0  0  0  0  0  0  0  0  0  0
    8.0333   -1.2413    0.0000 C   0  0  0  0  0  0  0  0  0  0  0  0
    7.8321    0.2451    0.0000 C   0  0  0  0  0  0  0  0  0  0  0  0
    6.4442    0.8141    0.0000 C   0  0  0  0  0  0  0  0  0  0  0  0
    3.6684    1.9520    0.0000 C   0  0  0  0  0  0  0  0  0  0  0  0
    2.2805    2.5210    0.0000 C   0  0  0  0  0  0  0  0  0  0  0  0
  1  2  2  0
  2  3  1  0
  3  4  1  0
  4  5  1  0
  5  6  2  0
  6  7  1  0
  7  8  2  0
  8  9  1  0
  9 10  2  0
 10 11  1  0
 11 12  1  0
 12 13  1  0
 13 14  1  0
 14 15  1  0
 15 16  1  0
 16 17  1  0
 17 18  1  0
 18 19  1  0
 19 20  1  0
 20 21  1  0
 21 22  1  0
 22 23  1  0
 23 24  1  0
 18 25  1  0
 25 26  1  0
 11  2  1  0
 26 15  1  0
 10  5  1  0
 24 19  1  0
M  END
>  <Ki>  (288) 
16.1

>  <database>  (288) 
SRSLDB

$$$$

     RDKit          2D

 31 34  0  0  0  0  0  0  0  0999 V2000
   -5.2329   -3.8882    0.0000 C   0  0  0  0  0  0  0  0  0  0  0  0
   -3.9192   -3.1643    0.0000 C   0  0  0  0  0  0  0  0  0  0  0  0
   -3.8892   -1.6646    0.0000 C   0  0  0  0  0  0  0  0  0  0  0  0
   -5.1730   -0.8888    0.0000 C   0  0  0  0  0  0  0  0  0  0  0  0
   -5.1431    0.6109    0.0000 C   0  0  0  0  0  0  0  0  0  0  0  0
   -3.8293    1.3348    0.0000 C   0  0  0  0  0  0  0  0  0  0  0  0
   -3.7994    2.8345    0.0000 C   0  0  0  0  0  0  0  0  0  0  0  0
   -5.0832    3.6103    0.0000 C   0  0  0  0  0  0  0  0  0  0  0  0
   -2.4856    3.5584    0.0000 C   0  0  0  0  0  0  0  0  0  0  0  0
   -2.5455    0.5590    0.0000 C   0  0  0  0  0  0  0  0  0  0  0  0
   -2.5755   -0.9407    0.0000 C   0  0  0  0  0  0  0  0  0  0  0  0
   -1.2917   -1.7165    0.0000 N   0  0  0  0  0  0  0  0  0  0  0  0
    0.0221   -0.9926    0.0000 C   0  0  0  0  0  0  0  0  0  0  0  0
    0.0520    0.5071    0.0000 O   0  0  0  0  0  0  0  0  0  0  0  0
    1.3059   -1.7684    0.0000 O   0  0  0  0  0  0  0  0  0  0  0  0
    2.6196   -1.0445    0.0000 C   0  0  0  0  0  0  0  0  0  0  0  0
    3.9035   -1.8202    0.0000 C   0  0  0  0  0  0  0  0  0  0  0  0
    5.2172   -1.0963    0.0000 C   0  0  0  0  0  0  0  0  0  0  0  0
    6.5310   -0.3724    0.0000 C   0  0  0  0  0  0  0  0  0  0  0  0
    6.5609    1.1273    0.0000 C   0  0  0  0  0  0  0  0  0  0  0  0
    5.2771    1.9031    0.0000 C   0  0  0  0  0  0  0  0  0  0  0  0
    3.9634    1.1792    0.0000 C   0  0  0  0  0  0  0  0  0  0  0  0
    2.6496    0.4553    0.0000 C   0  0  0  0  0  0  0  0  0  0  0  0
    3.9334   -0.3205    0.0000 N   0  0  0  0  0  0  0  0  0  0  0  0
    2.6196   -1.0445    0.0000 C   0  0  0  0  0  0  0  0  0  0  0  0
    1.3358   -0.2687    0.0000 C   0  0  0  0  0  0  0  0  0  0  0  0
    1.3658    1.2310    0.0000 C   0  0  0  0  0  0  0  0  0  0  0  0
    0.0820    2.0068    0.0000 C   0  0  0  0  0  0  0  0  0  0  0  0
   -1.2318    1.2829    0.0000 C   0  0  0  0  0  0  0  0  0  0  0  0
   -1.2617   -0.2168    0.0000 C   0  0  0  0  0  0  0  0  0  0  0  0
    0.0221   -0.9926    0.0000 C   0  0  0  0  0  0  0  0  0  0  0  0
  1  2  1  0
  2  3  1  0
  3  4  2  0
  4  5  1  0
  5  6  2  0
  6  7  1  0
  7  8  1  0
  7  9  1  0
  6 10  1  0
 10 11  2  0
 11 12  1  0
 12 13  1  0
 13 14  2  0
 13 15  1  0
 15 16  1  0
 16 17  1  0
 17 18  1  0
 18 19  1  0
 19 20  1  0
 20 21  1  0
 21 22  1  0
 22 23  1  0
 22 24  1  0
 24 25  1  0
 25 26  1  0
 26 27  2  0
 27 28  1  0
 28 29  2  0
 29 30  1  0
 30 31  2  0
 11  3  1  0
 23 16  1  0
 31 26  1  0
 24 18  1  0
M  END
>  <Ki>  (289) 
5.9

>  <database>  (289) 
SRSLDB

$$$$

     RDKit          2D

 38 41  0  0  0  0  0  0  0  0999 V2000
   -3.1748   -0.0240    0.0000 C   0  0  0  0  0  0  0  0  0  0  0  0
   -1.7811   -0.5788    0.0000 C   0  0  0  0  0  0  0  0  0  0  0  0
   -0.3875   -1.1335    0.0000 C   0  0  0  0  0  0  0  0  0  0  0  0
   -0.1711   -2.6179    0.0000 N   0  0  0  0  0  0  0  0  0  0  0  0
    1.2225   -3.1726    0.0000 C   0  0  0  0  0  0  0  0  0  0  0  0
    2.3998   -2.2431    0.0000 C   0  0  0  0  0  0  0  0  0  0  0  0
    3.7934   -2.7979    0.0000 C   0  0  0  0  0  0  0  0  0  0  0  0
    4.9707   -1.8683    0.0000 N   0  0  0  0  0  0  0  0  0  0  0  0
    6.3643   -2.4231    0.0000 C   0  0  0  0  0  0  0  0  0  0  0  0
    7.5416   -1.4936    0.0000 C   0  0  0  0  0  0  0  0  0  0  0  0
    7.3252   -0.0092    0.0000 N   0  0  0  0  0  0  0  0  0  0  0  0
    8.5025    0.9203    0.0000 C   0  0  0  0  0  0  0  0  0  0  0  0
    9.8961    0.3655    0.0000 C   0  0  0  0  0  0  0  0  0  0  0  0
   11.0734    1.2951    0.0000 C   0  0  0  0  0  0  0  0  0  0  0  0
   10.8570    2.7794    0.0000 C   0  0  0  0  0  0  0  0  0  0  0  0
   12.0343    3.7089    0.0000 F   0  0  0  0  0  0  0  0  0  0  0  0
    9.4634    3.3341    0.0000 C   0  0  0  0  0  0  0  0  0  0  0  0
    8.2861    2.4046    0.0000 C   0  0  0  0  0  0  0  0  0  0  0  0
    5.9316    0.5455    0.0000 C   0  0  0  0  0  0  0  0  0  0  0  0
    4.7543   -0.3840    0.0000 C   0  0  0  0  0  0  0  0  0  0  0  0
   -1.3484   -3.5474    0.0000 C   0  0  0  0  0  0  0  0  0  0  0  0
   -2.7420   -2.9926    0.0000 C   0  0  0  0  0  0  0  0  0  0  0  0
   -2.9584   -1.5083    0.0000 C   0  0  0  0  0  0  0  0  0  0  0  0
   -4.3520   -0.9535    0.0000 C   0  0  0  0  0  0  0  0  0  0  0  0
   -5.5293   -1.8831    0.0000 C   0  0  0  0  0  0  0  0  0  0  0  0
   -6.9230   -1.3283    0.0000 C   0  0  0  0  0  0  0  0  0  0  0  0
   -8.1002   -2.2578    0.0000 O   0  0  0  0  0  0  0  0  0  0  0  0
   -7.1393    0.1560    0.0000 C   0  0  0  0  0  0  0  0  0  0  0  0
   -5.9621    1.0856    0.0000 C   0  0  0  0  0  0  0  0  0  0  0  0
   -6.1784    2.5699    0.0000 C   0  0  0  0  0  0  0  0  0  0  0  0
   -7.5721    3.1246    0.0000 C   0  0  0  0  0  0  0  0  0  0  0  0
   -7.7884    4.6090    0.0000 N   0  0  0  0  0  4  0  0  0  0  0  0
   -9.1821    5.1637    0.0000 O   0  0  0  0  0  0  0  0  0  0  0  0
   -6.6112    5.5385    0.0000 O   0  0  0  0  0  1  0  0  0  0  0  0
   -8.7493    2.1951    0.0000 C   0  0  0  0  0  0  0  0  0  0  0  0
   -8.5330    0.7108    0.0000 C   0  0  0  0  0  0  0  0  0  0  0  0
   -5.3129   -3.3674    0.0000 C   0  0  0  0  0  0  0  0  0  0  0  0
   -3.9193   -3.9222    0.0000 C   0  0  0  0  0  0  0  0  0  0  0  0
  1  2  3  0
  2  3  1  0
  3  4  1  0
  4  5  1  0
  5  6  1  0
  6  7  1  0
  7  8  1  0
  8  9  1  0
  9 10  1  0
 10 11  1  0
 11 12  1  0
 12 13  2  0
 13 14  1  0
 14 15  2  0
 15 16  1  0
 15 17  1  0
 17 18  2  0
 11 19  1  0
 19 20  1  0
  4 21  1  0
 21 22  1  0
 22 23  2  0
 23 24  1  0
 24 25  2  0
 25 26  1  0
 26 27  2  0
 26 28  1  0
 28 29  2  0
 29 30  1  0
 30 31  2  0
 31 32  1  0
 32 33  2  0
 32 34  1  0
 31 35  1  0
 35 36  2  0
 25 37  1  0
 37 38  2  0
 20  8  1  0
 38 22  1  0
 18 12  1  0
 36 28  1  0
M  CHG  2  32   1  34  -1
M  END
>  <Ki>  (290) 
69.43

>  <database>  (290) 
SRSLDB

$$$$

     RDKit          2D

 33 37  0  0  0  0  0  0  0  0999 V2000
   -8.7798   -1.9993    0.0000 C   0  0  0  0  0  0  0  0  0  0  0  0
   -7.3872   -2.5564    0.0000 O   0  0  0  0  0  0  0  0  0  0  0  0
   -6.2083   -1.6289    0.0000 C   0  0  0  0  0  0  0  0  0  0  0  0
   -6.4221   -0.1442    0.0000 C   0  0  0  0  0  0  0  0  0  0  0  0
   -5.2433    0.7833    0.0000 C   0  0  0  0  0  0  0  0  0  0  0  0
   -3.8506    0.2261    0.0000 C   0  0  0  0  0  0  0  0  0  0  0  0
   -3.6368   -1.2585    0.0000 C   0  0  0  0  0  0  0  0  0  0  0  0
   -4.8156   -2.1861    0.0000 C   0  0  0  0  0  0  0  0  0  0  0  0
   -4.6018   -3.6707    0.0000 O   0  0  0  0  0  0  0  0  0  0  0  0
   -3.2091   -4.2279    0.0000 C   0  0  0  0  0  0  0  0  0  0  0  0
   -2.6717    1.1537    0.0000 C   0  0  0  0  0  0  0  0  0  0  0  0
   -2.8855    2.6383    0.0000 N   0  0  0  0  0  0  0  0  0  0  0  0
   -1.7067    3.5659    0.0000 C   0  0  0  0  0  0  0  0  0  0  0  0
   -0.3140    3.0087    0.0000 C   0  0  0  0  0  0  0  0  0  0  0  0
   -0.1002    1.5240    0.0000 C   0  0  0  0  0  0  0  0  0  0  0  0
    1.2925    0.9668    0.0000 C   0  0  0  0  0  0  0  0  0  0  0  0
    2.4714    1.8944    0.0000 N   0  0  0  0  0  0  0  0  0  0  0  0
    3.8641    1.3372    0.0000 C   0  0  0  0  0  0  0  0  0  0  0  0
    5.0429    2.2647    0.0000 O   0  0  0  0  0  0  0  0  0  0  0  0
    4.0779   -0.1475    0.0000 C   0  0  0  0  0  0  0  0  0  0  0  0
    2.8990   -1.0750    0.0000 C   0  0  0  0  0  0  0  0  0  0  0  0
    3.1128   -2.5597    0.0000 C   0  0  0  0  0  0  0  0  0  0  0  0
    4.5055   -3.1168    0.0000 C   0  0  0  0  0  0  0  0  0  0  0  0
    5.6844   -2.1893    0.0000 C   0  0  0  0  0  0  0  0  0  0  0  0
    7.0771   -2.7465    0.0000 C   0  0  0  0  0  0  0  0  0  0  0  0
    8.2559   -1.8190    0.0000 C   0  0  0  0  0  0  0  0  0  0  0  0
    8.0421   -0.3343    0.0000 C   0  0  0  0  0  0  0  0  0  0  0  0
    6.6494    0.2229    0.0000 C   0  0  0  0  0  0  0  0  0  0  0  0
    5.4706   -0.7046    0.0000 C   0  0  0  0  0  0  0  0  0  0  0  0
    2.2575    3.3790    0.0000 C   0  0  0  0  0  0  0  0  0  0  0  0
    0.8649    3.9362    0.0000 C   0  0  0  0  0  0  0  0  0  0  0  0
   -4.2782    3.1955    0.0000 C   0  0  0  0  0  0  0  0  0  0  0  0
   -5.4571    2.2680    0.0000 C   0  0  0  0  0  0  0  0  0  0  0  0
  1  2  1  0
  2  3  1  0
  3  4  2  0
  4  5  1  0
  5  6  2  0
  6  7  1  0
  7  8  2  0
  8  9  1  0
  9 10  1  0
  6 11  1  0
 11 12  1  0
 12 13  1  0
 13 14  1  0
 14 15  1  0
 15 16  1  0
 16 17  1  0
 17 18  1  0
 18 19  2  0
 18 20  1  0
 20 21  2  0
 21 22  1  0
 22 23  2  0
 23 24  1  0
 24 25  2  0
 25 26  1  0
 26 27  2  0
 27 28  1  0
 28 29  2  0
 17 30  1  0
 30 31  1  0
 12 32  1  0
 32 33  1  0
  8  3  1  0
 31 14  1  0
 33  5  1  0
 29 20  1  0
 29 24  1  0
M  END
>  <Ki>  (291) 
115.0

>  <database>  (291) 
SRSLDB

$$$$

     RDKit          2D

 28 31  0  0  0  0  0  0  0  0999 V2000
   -4.4722    3.0922    0.0000 O   0  0  0  0  0  0  0  0  0  0  0  0
   -4.8557    1.6420    0.0000 C   0  0  0  0  0  0  0  0  0  0  0  0
   -6.2543    1.0999    0.0000 C   0  0  0  0  0  0  0  0  0  0  0  0
   -7.5930    1.7765    0.0000 C   0  0  0  0  0  0  0  0  0  0  0  0
   -8.8484    0.9554    0.0000 C   0  0  0  0  0  0  0  0  0  0  0  0
   -8.7650   -0.5422    0.0000 C   0  0  0  0  0  0  0  0  0  0  0  0
   -7.4263   -1.2189    0.0000 C   0  0  0  0  0  0  0  0  0  0  0  0
   -6.1709   -0.3978    0.0000 C   0  0  0  0  0  0  0  0  0  0  0  0
   -4.7208   -0.7813    0.0000 C   0  0  0  0  0  0  0  0  0  0  0  0
   -4.1787   -2.1799    0.0000 O   0  0  0  0  0  0  0  0  0  0  0  0
   -3.9079    0.4794    0.0000 N   0  0  0  0  0  0  0  0  0  0  0  0
   -2.4103    0.5628    0.0000 C   0  0  0  0  0  0  0  0  0  0  0  0
   -1.5892   -0.6926    0.0000 C   0  0  0  0  0  0  0  0  0  0  0  0
   -0.0915   -0.6092    0.0000 C   0  0  0  0  0  0  0  0  0  0  0  0
    0.7296   -1.8645    0.0000 C   0  0  0  0  0  0  0  0  0  0  0  0
    2.2272   -1.7811    0.0000 N   0  0  0  0  0  0  0  0  0  0  0  0
    3.0483   -3.0364    0.0000 C   0  0  0  0  0  0  0  0  0  0  0  0
    4.5460   -2.9530    0.0000 C   0  0  0  0  0  0  0  0  0  0  0  0
    5.2226   -1.6143    0.0000 C   0  0  0  0  0  0  0  0  0  0  0  0
    6.7203   -1.5309    0.0000 C   0  0  0  0  0  0  0  0  0  0  0  0
    7.3969   -0.1922    0.0000 C   0  0  0  0  0  0  0  0  0  0  0  0
    6.5758    1.0632    0.0000 C   0  0  0  0  0  0  0  0  0  0  0  0
    7.2524    2.4019    0.0000 N   0  0  0  0  0  4  0  0  0  0  0  0
    6.4314    3.6572    0.0000 O   0  0  0  0  0  0  0  0  0  0  0  0
    8.7501    2.4853    0.0000 O   0  0  0  0  0  1  0  0  0  0  0  0
    5.0781    0.9798    0.0000 C   0  0  0  0  0  0  0  0  0  0  0  0
    4.4015   -0.3590    0.0000 C   0  0  0  0  0  0  0  0  0  0  0  0
    2.9039   -0.4424    0.0000 C   0  0  0  0  0  0  0  0  0  0  0  0
  1  2  2  0
  2  3  1  0
  3  4  2  0
  4  5  1  0
  5  6  2  0
  6  7  1  0
  7  8  2  0
  8  9  1  0
  9 10  2  0
  9 11  1  0
 11 12  1  0
 12 13  1  0
 13 14  1  0
 14 15  1  0
 15 16  1  0
 16 17  1  0
 17 18  1  0
 18 19  1  0
 19 20  2  0
 20 21  1  0
 21 22  2  0
 22 23  1  0
 23 24  2  0
 23 25  1  0
 22 26  1  0
 26 27  2  0
 27 28  1  0
 11  2  1  0
 28 16  1  0
  8  3  1  0
 27 19  1  0
M  CHG  2  23   1  25  -1
M  END
>  <ChemBL_ID>  (292) 
CHEMBL1927702

>  <Ki>  (292) 
21.26

>  <database>  (292) 
SRSLDB

$$$$

     RDKit          2D

 31 34  0  0  0  0  0  0  0  0999 V2000
   -5.2329   -3.8882    0.0000 C   0  0  0  0  0  0  0  0  0  0  0  0
   -3.9192   -3.1643    0.0000 O   0  0  0  0  0  0  0  0  0  0  0  0
   -3.8892   -1.6646    0.0000 C   0  0  0  0  0  0  0  0  0  0  0  0
   -5.1730   -0.8888    0.0000 C   0  0  0  0  0  0  0  0  0  0  0  0
   -5.1431    0.6109    0.0000 C   0  0  0  0  0  0  0  0  0  0  0  0
   -3.8293    1.3348    0.0000 C   0  0  0  0  0  0  0  0  0  0  0  0
   -3.7994    2.8345    0.0000 N   0  0  0  0  0  4  0  0  0  0  0  0
   -2.4856    3.5584    0.0000 O   0  0  0  0  0  0  0  0  0  0  0  0
   -5.0832    3.6103    0.0000 O   0  0  0  0  0  1  0  0  0  0  0  0
   -2.5455    0.5590    0.0000 C   0  0  0  0  0  0  0  0  0  0  0  0
   -2.5755   -0.9407    0.0000 C   0  0  0  0  0  0  0  0  0  0  0  0
   -1.2917   -1.7165    0.0000 N   0  0  0  0  0  0  0  0  0  0  0  0
    0.0221   -0.9926    0.0000 C   0  0  0  0  0  0  0  0  0  0  0  0
    0.0520    0.5071    0.0000 O   0  0  0  0  0  0  0  0  0  0  0  0
    1.3059   -1.7684    0.0000 O   0  0  0  0  0  0  0  0  0  0  0  0
    2.6196   -1.0445    0.0000 C   0  0  0  0  0  0  0  0  0  0  0  0
    3.9035   -1.8202    0.0000 C   0  0  0  0  0  0  0  0  0  0  0  0
    5.2172   -1.0963    0.0000 C   0  0  0  0  0  0  0  0  0  0  0  0
    6.5310   -0.3724    0.0000 C   0  0  0  0  0  0  0  0  0  0  0  0
    6.5609    1.1273    0.0000 C   0  0  0  0  0  0  0  0  0  0  0  0
    5.2771    1.9031    0.0000 C   0  0  0  0  0  0  0  0  0  0  0  0
    3.9634    1.1792    0.0000 C   0  0  0  0  0  0  0  0  0  0  0  0
    2.6496    0.4553    0.0000 C   0  0  0  0  0  0  0  0  0  0  0  0
    3.9334   -0.3205    0.0000 N   0  0  0  0  0  0  0  0  0  0  0  0
    2.6196   -1.0445    0.0000 C   0  0  0  0  0  0  0  0  0  0  0  0
    1.3358   -0.2687    0.0000 C   0  0  0  0  0  0  0  0  0  0  0  0
    1.3658    1.2310    0.0000 C   0  0  0  0  0  0  0  0  0  0  0  0
    0.0820    2.0068    0.0000 C   0  0  0  0  0  0  0  0  0  0  0  0
   -1.2318    1.2829    0.0000 C   0  0  0  0  0  0  0  0  0  0  0  0
   -1.2617   -0.2168    0.0000 C   0  0  0  0  0  0  0  0  0  0  0  0
    0.0221   -0.9926    0.0000 C   0  0  0  0  0  0  0  0  0  0  0  0
  1  2  1  0
  2  3  1  0
  3  4  2  0
  4  5  1  0
  5  6  2  0
  6  7  1  0
  7  8  2  0
  7  9  1  0
  6 10  1  0
 10 11  2  0
 11 12  1  0
 12 13  1  0
 13 14  2  0
 13 15  1  0
 15 16  1  0
 16 17  1  0
 17 18  1  0
 18 19  1  0
 19 20  1  0
 20 21  1  0
 21 22  1  0
 22 23  1  0
 22 24  1  0
 24 25  1  0
 25 26  1  0
 26 27  2  0
 27 28  1  0
 28 29  2  0
 29 30  1  0
 30 31  2  0
 11  3  1  0
 23 16  1  0
 31 26  1  0
 24 18  1  0
M  CHG  2   7   1   9  -1
M  END
>  <Ki>  (293) 
16.7

>  <database>  (293) 
SRSLDB

$$$$

     RDKit          2D

 32 36  0  0  0  0  0  0  0  0999 V2000
    9.2065    3.9877    0.0000 F   0  0  0  0  0  0  0  0  0  0  0  0
    8.1038    2.9708    0.0000 C   0  0  0  0  0  0  0  0  0  0  0  0
    8.4331    1.5074    0.0000 C   0  0  0  0  0  0  0  0  0  0  0  0
    7.3304    0.4905    0.0000 C   0  0  0  0  0  0  0  0  0  0  0  0
    5.8984    0.9371    0.0000 C   0  0  0  0  0  0  0  0  0  0  0  0
    4.7957   -0.0798    0.0000 C   0  0  0  0  0  0  0  0  0  0  0  0
    3.3248    0.2146    0.0000 C   0  0  0  0  0  0  0  0  0  0  0  0
    2.5903   -1.0933    0.0000 N   0  0  0  0  0  0  0  0  0  0  0  0
    1.1005   -1.2678    0.0000 C   0  0  0  0  0  0  0  0  0  0  0  0
    0.2045   -0.0648    0.0000 C   0  0  0  0  0  0  0  0  0  0  0  0
   -1.2853   -0.2393    0.0000 C   0  0  0  0  0  0  0  0  0  0  0  0
   -2.1814    0.9636    0.0000 C   0  0  0  0  0  0  0  0  0  0  0  0
   -3.6712    0.7891    0.0000 N   0  0  0  0  0  0  0  0  0  0  0  0
   -4.5672    1.9921    0.0000 C   0  0  0  0  0  0  0  0  0  0  0  0
   -6.0570    1.8176    0.0000 C   0  0  0  0  0  0  0  0  0  0  0  0
   -6.6508    0.4401    0.0000 N   0  0  0  0  0  0  0  0  0  0  0  0
   -8.1406    0.2656    0.0000 C   0  0  0  0  0  0  0  0  0  0  0  0
   -9.0367    1.4686    0.0000 C   0  0  0  0  0  0  0  0  0  0  0  0
  -10.5265    1.2941    0.0000 C   0  0  0  0  0  0  0  0  0  0  0  0
  -11.1203   -0.0834    0.0000 C   0  0  0  0  0  0  0  0  0  0  0  0
  -10.2242   -1.2864    0.0000 C   0  0  0  0  0  0  0  0  0  0  0  0
   -8.7344   -1.1119    0.0000 C   0  0  0  0  0  0  0  0  0  0  0  0
   -5.7548   -0.7628    0.0000 C   0  0  0  0  0  0  0  0  0  0  0  0
   -4.2650   -0.5883    0.0000 C   0  0  0  0  0  0  0  0  0  0  0  0
    3.6072   -2.1960    0.0000 C   0  0  0  0  0  0  0  0  0  0  0  0
    3.4681   -3.6895    0.0000 C   0  0  0  0  0  0  0  0  0  0  0  0
    4.6921   -4.5567    0.0000 C   0  0  0  0  0  0  0  0  0  0  0  0
    6.0550   -3.9304    0.0000 C   0  0  0  0  0  0  0  0  0  0  0  0
    6.1941   -2.4368    0.0000 C   0  0  0  0  0  0  0  0  0  0  0  0
    4.9702   -1.5696    0.0000 C   0  0  0  0  0  0  0  0  0  0  0  0
    5.5691    2.4005    0.0000 C   0  0  0  0  0  0  0  0  0  0  0  0
    6.6718    3.4174    0.0000 C   0  0  0  0  0  0  0  0  0  0  0  0
  1  2  1  0
  2  3  2  0
  3  4  1  0
  4  5  2  0
  5  6  1  0
  6  7  2  0
  7  8  1  0
  8  9  1  0
  9 10  1  0
 10 11  1  0
 11 12  1  0
 12 13  1  0
 13 14  1  0
 14 15  1  0
 15 16  1  0
 16 17  1  0
 17 18  1  0
 18 19  1  0
 19 20  1  0
 20 21  1  0
 21 22  1  0
 16 23  1  0
 23 24  1  0
  8 25  1  0
 25 26  2  0
 26 27  1  0
 27 28  2  0
 28 29  1  0
 29 30  2  0
  5 31  1  0
 31 32  2  0
 32  2  1  0
 30  6  1  0
 24 13  1  0
 30 25  1  0
 22 17  1  0
M  END
>  <ChemBL_ID>  (294) 
CHEMBL1831164

>  <Ki>  (294) 
22.55

>  <database>  (294) 
SRSLDB

$$$$

     RDKit          2D

 31 34  0  0  0  0  0  0  0  0999 V2000
    8.1987   -4.1449    0.0000 C   0  0  0  0  0  0  0  0  0  0  0  0
    8.4178   -2.6610    0.0000 C   0  0  0  0  0  0  0  0  0  0  0  0
    9.8124   -2.1087    0.0000 O   0  0  0  0  0  0  0  0  0  0  0  0
    7.2422   -1.7293    0.0000 C   0  0  0  0  0  0  0  0  0  0  0  0
    5.8476   -2.2816    0.0000 C   0  0  0  0  0  0  0  0  0  0  0  0
    4.6720   -1.3499    0.0000 C   0  0  0  0  0  0  0  0  0  0  0  0
    4.8910    0.1340    0.0000 C   0  0  0  0  0  0  0  0  0  0  0  0
    6.2856    0.6862    0.0000 C   0  0  0  0  0  0  0  0  0  0  0  0
    7.4612   -0.2454    0.0000 C   0  0  0  0  0  0  0  0  0  0  0  0
    6.5047    2.1702    0.0000 O   0  0  0  0  0  0  0  0  0  0  0  0
    5.3291    3.1018    0.0000 C   0  0  0  0  0  0  0  0  0  0  0  0
    3.9345    2.5496    0.0000 C   0  0  0  0  0  0  0  0  0  0  0  0
    2.7589    3.4812    0.0000 O   0  0  0  0  0  0  0  0  0  0  0  0
    3.7154    1.0656    0.0000 N   0  0  0  0  0  0  0  0  0  0  0  0
    2.3208    0.5134    0.0000 C   0  0  0  0  0  0  0  0  0  0  0  0
    1.1452    1.4450    0.0000 C   0  0  0  0  0  0  0  0  0  0  0  0
   -0.2494    0.8928    0.0000 C   0  0  0  0  0  0  0  0  0  0  0  0
   -1.4250    1.8244    0.0000 C   0  0  0  0  0  0  0  0  0  0  0  0
   -2.8197    1.2722    0.0000 N   0  0  0  0  0  0  0  0  0  0  0  0
   -3.9953    2.2038    0.0000 C   0  0  0  0  0  0  0  0  0  0  0  0
   -5.3899    1.6516    0.0000 C   0  0  0  0  0  0  0  0  0  0  0  0
   -5.6089    0.1676    0.0000 N   0  0  0  0  0  0  0  0  0  0  0  0
   -7.0036   -0.3846    0.0000 C   0  0  0  0  0  0  0  0  0  0  0  0
   -8.1792    0.5470    0.0000 C   0  0  0  0  0  0  0  0  0  0  0  0
   -9.5738   -0.0052    0.0000 C   0  0  0  0  0  0  0  0  0  0  0  0
   -9.7928   -1.4892    0.0000 C   0  0  0  0  0  0  0  0  0  0  0  0
  -11.1875   -2.0414    0.0000 F   0  0  0  0  0  0  0  0  0  0  0  0
   -8.6172   -2.4208    0.0000 C   0  0  0  0  0  0  0  0  0  0  0  0
   -7.2226   -1.8686    0.0000 C   0  0  0  0  0  0  0  0  0  0  0  0
   -4.4333   -0.7640    0.0000 C   0  0  0  0  0  0  0  0  0  0  0  0
   -3.0387   -0.2118    0.0000 C   0  0  0  0  0  0  0  0  0  0  0  0
  1  2  1  0
  2  3  2  0
  2  4  1  0
  4  5  2  0
  5  6  1  0
  6  7  2  0
  7  8  1  0
  8  9  2  0
  8 10  1  0
 10 11  1  0
 11 12  1  0
 12 13  2  0
 12 14  1  0
 14 15  1  0
 15 16  1  0
 16 17  1  0
 17 18  1  0
 18 19  1  0
 19 20  1  0
 20 21  1  0
 21 22  1  0
 22 23  1  0
 23 24  2  0
 24 25  1  0
 25 26  2  0
 26 27  1  0
 26 28  1  0
 28 29  2  0
 22 30  1  0
 30 31  1  0
  9  4  1  0
 31 19  1  0
 14  7  1  0
 29 23  1  0
M  END
>  <Ki>  (295) 
6.34

>  <database>  (295) 
SRSLDB

$$$$

     RDKit          2D

 30 33  0  0  0  0  0  0  0  0999 V2000
    4.6221    3.7349    0.0000 C   0  0  0  0  0  0  0  0  0  0  0  0
    3.3150    2.9990    0.0000 O   0  0  0  0  0  0  0  0  0  0  0  0
    3.2988    1.4991    0.0000 C   0  0  0  0  0  0  0  0  0  0  0  0
    4.5897    0.7351    0.0000 C   0  0  0  0  0  0  0  0  0  0  0  0
    4.5735   -0.7648    0.0000 C   0  0  0  0  0  0  0  0  0  0  0  0
    5.8644   -1.5288    0.0000 N   0  0  0  0  0  4  0  0  0  0  0  0
    7.1714   -0.7929    0.0000 O   0  0  0  0  0  0  0  0  0  0  0  0
    5.8481   -3.0287    0.0000 O   0  0  0  0  0  1  0  0  0  0  0  0
    3.2664   -1.5008    0.0000 C   0  0  0  0  0  0  0  0  0  0  0  0
    1.9756   -0.7368    0.0000 C   0  0  0  0  0  0  0  0  0  0  0  0
    1.9918    0.7631    0.0000 C   0  0  0  0  0  0  0  0  0  0  0  0
    0.7009    1.5271    0.0000 N   0  0  0  0  0  0  0  0  0  0  0  0
   -0.6062    0.7912    0.0000 C   0  0  0  0  0  0  0  0  0  0  0  0
   -0.6224   -0.7087    0.0000 O   0  0  0  0  0  0  0  0  0  0  0  0
   -1.8970    1.5552    0.0000 O   0  0  0  0  0  0  0  0  0  0  0  0
   -3.2041    0.8193    0.0000 C   0  0  0  0  0  0  0  0  0  0  0  0
   -3.2203   -0.6806    0.0000 C   0  0  0  0  0  0  0  0  0  0  0  0
   -4.5273   -1.4166    0.0000 C   0  0  0  0  0  0  0  0  0  0  0  0
   -5.9979   -1.7126    0.0000 C   0  0  0  0  0  0  0  0  0  0  0  0
   -6.7338   -0.4055    0.0000 C   0  0  0  0  0  0  0  0  0  0  0  0
   -5.7181    0.6983    0.0000 C   0  0  0  0  0  0  0  0  0  0  0  0
   -4.4949    1.5833    0.0000 C   0  0  0  0  0  0  0  0  0  0  0  0
   -4.3544    0.0734    0.0000 N   0  0  0  0  0  0  0  0  0  0  0  0
   -3.0474    0.8094    0.0000 C   0  0  0  0  0  0  0  0  0  0  0  0
   -1.7565    0.0454    0.0000 C   0  0  0  0  0  0  0  0  0  0  0  0
   -1.7727   -1.4545    0.0000 C   0  0  0  0  0  0  0  0  0  0  0  0
   -0.4819   -2.2185    0.0000 C   0  0  0  0  0  0  0  0  0  0  0  0
    0.8252   -1.4826    0.0000 C   0  0  0  0  0  0  0  0  0  0  0  0
    0.8414    0.0173    0.0000 C   0  0  0  0  0  0  0  0  0  0  0  0
   -0.4495    0.7813    0.0000 C   0  0  0  0  0  0  0  0  0  0  0  0
  1  2  1  0
  2  3  1  0
  3  4  2  0
  4  5  1  0
  5  6  1  0
  6  7  2  0
  6  8  1  0
  5  9  2  0
  9 10  1  0
 10 11  2  0
 11 12  1  0
 12 13  1  0
 13 14  2  0
 13 15  1  0
 15 16  1  0
 16 17  1  0
 17 18  1  0
 18 19  1  0
 19 20  1  0
 20 21  1  0
 21 22  1  0
 21 23  1  0
 23 24  1  0
 24 25  1  0
 25 26  2  0
 26 27  1  0
 27 28  2  0
 28 29  1  0
 29 30  2  0
 11  3  1  0
 22 16  1  0
 30 25  1  0
 23 18  1  0
M  CHG  2   6   1   8  -1
M  END
>  <Ki>  (296) 
2.0

>  <database>  (296) 
SRSLDB

$$$$

     RDKit          2D

 29 32  0  0  0  0  0  0  0  0999 V2000
   -6.0273   -4.3689    0.0000 C   0  0  0  0  0  0  0  0  0  0  0  0
   -4.9717   -3.3032    0.0000 C   0  0  0  0  0  0  0  0  0  0  0  0
   -3.5210   -3.6845    0.0000 O   0  0  0  0  0  0  0  0  0  0  0  0
   -5.3669   -1.8561    0.0000 C   0  0  0  0  0  0  0  0  0  0  0  0
   -6.8176   -1.4748    0.0000 C   0  0  0  0  0  0  0  0  0  0  0  0
   -7.2127   -0.0278    0.0000 C   0  0  0  0  0  0  0  0  0  0  0  0
   -6.1571    1.0379    0.0000 C   0  0  0  0  0  0  0  0  0  0  0  0
   -6.2428    2.5355    0.0000 O   0  0  0  0  0  0  0  0  0  0  0  0
   -4.8450    3.0797    0.0000 C   0  0  0  0  0  0  0  0  0  0  0  0
   -4.4637    4.5304    0.0000 O   0  0  0  0  0  0  0  0  0  0  0  0
   -3.8955    1.9185    0.0000 N   0  0  0  0  0  0  0  0  0  0  0  0
   -2.3979    2.0041    0.0000 C   0  0  0  0  0  0  0  0  0  0  0  0
   -1.5750    0.7500    0.0000 C   0  0  0  0  0  0  0  0  0  0  0  0
   -0.0774    0.8357    0.0000 C   0  0  0  0  0  0  0  0  0  0  0  0
    0.7455   -0.4184    0.0000 C   0  0  0  0  0  0  0  0  0  0  0  0
    2.2431   -0.3328    0.0000 N   0  0  0  0  0  0  0  0  0  0  0  0
    3.0660   -1.5869    0.0000 C   0  0  0  0  0  0  0  0  0  0  0  0
    4.5636   -1.5012    0.0000 C   0  0  0  0  0  0  0  0  0  0  0  0
    5.2382   -0.1615    0.0000 N   0  0  0  0  0  0  0  0  0  0  0  0
    6.7358   -0.0759    0.0000 C   0  0  0  0  0  0  0  0  0  0  0  0
    7.5587   -1.3300    0.0000 C   0  0  0  0  0  0  0  0  0  0  0  0
    9.0563   -1.2443    0.0000 C   0  0  0  0  0  0  0  0  0  0  0  0
    9.7309    0.0954    0.0000 C   0  0  0  0  0  0  0  0  0  0  0  0
    8.9079    1.3495    0.0000 C   0  0  0  0  0  0  0  0  0  0  0  0
    7.4104    1.2639    0.0000 C   0  0  0  0  0  0  0  0  0  0  0  0
    4.4153    1.0926    0.0000 C   0  0  0  0  0  0  0  0  0  0  0  0
    2.9177    1.0069    0.0000 C   0  0  0  0  0  0  0  0  0  0  0  0
   -4.7064    0.6566    0.0000 C   0  0  0  0  0  0  0  0  0  0  0  0
   -4.3113   -0.7904    0.0000 C   0  0  0  0  0  0  0  0  0  0  0  0
  1  2  1  0
  2  3  2  0
  2  4  1  0
  4  5  2  0
  5  6  1  0
  6  7  2  0
  7  8  1  0
  8  9  1  0
  9 10  2  0
  9 11  1  0
 11 12  1  0
 12 13  1  0
 13 14  1  0
 14 15  1  0
 15 16  1  0
 16 17  1  0
 17 18  1  0
 18 19  1  0
 19 20  1  0
 20 21  1  0
 21 22  1  0
 22 23  1  0
 23 24  1  0
 24 25  1  0
 19 26  1  0
 26 27  1  0
 11 28  1  0
 28 29  2  0
 29  4  1  0
 28  7  1  0
 27 16  1  0
 25 20  1  0
M  END
>  <Ki>  (297) 
10.41

>  <database>  (297) 
SRSLDB

$$$$

     RDKit          2D

 37 40  0  0  0  0  0  0  0  0999 V2000
    4.1227    0.4729    0.0000 O   0  0  0  0  0  0  0  0  0  0  0  0
    4.1422   -1.0270    0.0000 C   0  0  0  0  0  0  0  0  0  0  0  0
    5.4509   -1.7600    0.0000 C   0  0  0  0  0  0  0  0  0  0  0  0
    6.7401   -0.9931    0.0000 C   0  0  0  0  0  0  0  0  0  0  0  0
    8.0488   -1.7261    0.0000 C   0  0  0  0  0  0  0  0  0  0  0  0
    9.3379   -0.9593    0.0000 C   0  0  0  0  0  0  0  0  0  0  0  0
   10.6466   -1.6923    0.0000 C   0  0  0  0  0  0  0  0  0  0  0  0
   11.9358   -0.9254    0.0000 C   0  0  0  0  0  0  0  0  0  0  0  0
   11.9162    0.5744    0.0000 C   0  0  0  0  0  0  0  0  0  0  0  0
   10.6075    1.3074    0.0000 C   0  0  0  0  0  0  0  0  0  0  0  0
    9.3184    0.5406    0.0000 C   0  0  0  0  0  0  0  0  0  0  0  0
    2.8530   -1.7938    0.0000 O   0  0  0  0  0  0  0  0  0  0  0  0
    1.5443   -1.0608    0.0000 C   0  0  0  0  0  0  0  0  0  0  0  0
    0.2552   -1.8277    0.0000 C   0  0  0  0  0  0  0  0  0  0  0  0
   -1.0535   -1.0947    0.0000 C   0  0  0  0  0  0  0  0  0  0  0  0
   -2.3427   -1.8615    0.0000 C   0  0  0  0  0  0  0  0  0  0  0  0
   -3.6514   -1.1285    0.0000 N   0  0  0  0  0  0  0  0  0  0  0  0
   -3.6709    0.3713    0.0000 C   0  0  0  0  0  0  0  0  0  0  0  0
   -4.9796    1.1044    0.0000 C   0  0  0  0  0  0  0  0  0  0  0  0
   -6.2688    0.3375    0.0000 C   0  0  0  0  0  0  0  0  0  0  0  0
   -6.8001    1.7402    0.0000 O   0  0  0  0  0  0  0  0  0  0  0  0
   -7.7425    0.0578    0.0000 C   0  0  0  0  0  0  0  0  0  0  0  0
   -8.7215    1.1942    0.0000 C   0  0  0  0  0  0  0  0  0  0  0  0
  -10.1952    0.9145    0.0000 C   0  0  0  0  0  0  0  0  0  0  0  0
  -10.6898   -0.5016    0.0000 C   0  0  0  0  0  0  0  0  0  0  0  0
  -12.1635   -0.7813    0.0000 Cl  0  0  0  0  0  0  0  0  0  0  0  0
   -9.7108   -1.6380    0.0000 C   0  0  0  0  0  0  0  0  0  0  0  0
   -8.2371   -1.3583    0.0000 C   0  0  0  0  0  0  0  0  0  0  0  0
   -6.2492   -1.1624    0.0000 C   0  0  0  0  0  0  0  0  0  0  0  0
   -4.9405   -1.8954    0.0000 C   0  0  0  0  0  0  0  0  0  0  0  0
    1.5248    0.4390    0.0000 C   0  0  0  0  0  0  0  0  0  0  0  0
    2.8140    1.2059    0.0000 C   0  0  0  0  0  0  0  0  0  0  0  0
    2.7944    2.7058    0.0000 C   0  0  0  0  0  0  0  0  0  0  0  0
    1.4857    3.4388    0.0000 C   0  0  0  0  0  0  0  0  0  0  0  0
    1.4662    4.9387    0.0000 F   0  0  0  0  0  0  0  0  0  0  0  0
    0.1966    2.6719    0.0000 C   0  0  0  0  0  0  0  0  0  0  0  0
    0.2161    1.1721    0.0000 C   0  0  0  0  0  0  0  0  0  0  0  0
  1  2  2  0
  2  3  1  0
  3  4  1  0
  4  5  1  0
  5  6  1  0
  6  7  2  0
  7  8  1  0
  8  9  2  0
  9 10  1  0
 10 11  2  0
  2 12  1  0
 12 13  1  0
 13 14  1  1
 14 15  1  0
 15 16  1  0
 16 17  1  0
 17 18  1  0
 18 19  1  0
 19 20  1  0
 20 21  1  0
 20 22  1  0
 22 23  2  0
 23 24  1  0
 24 25  2  0
 25 26  1  0
 25 27  1  0
 27 28  2  0
 20 29  1  0
 29 30  1  0
 13 31  1  0
 31 32  2  0
 32 33  1  0
 33 34  2  0
 34 35  1  0
 34 36  1  0
 36 37  2  0
 11  6  1  0
 30 17  1  0
 37 31  1  0
 28 22  1  0
M  END
>  <Compound_Key>  (298) 
(S)-(-)-MRJF4

>  <Ki>  (298) 
118.0

>  <database>  (298) 
SRSLDB

>  <Document_ChEMBL_ID>  (298) 
10.3390/ijms22126359

$$$$

     RDKit          2D

 24 27  0  0  0  0  0  0  0  0999 V2000
    8.2500   -0.0000    0.0000 C   0  0  0  0  0  0  0  0  0  0  0  0
    7.5000   -1.2990    0.0000 C   0  0  0  0  0  0  0  0  0  0  0  0
    6.0000   -1.2990    0.0000 C   0  0  0  0  0  0  0  0  0  0  0  0
    5.2500   -0.0000    0.0000 C   0  0  0  0  0  0  0  0  0  0  0  0
    3.7500   -0.0000    0.0000 C   0  0  0  0  0  0  0  0  0  0  0  0
    3.0000    1.2990    0.0000 C   0  0  0  0  0  0  0  0  0  0  0  0
    1.5000    1.2990    0.0000 C   0  0  0  0  0  0  0  0  0  0  0  0
    0.7500    0.0000    0.0000 C   0  0  0  0  0  0  0  0  0  0  0  0
   -0.7500    0.0000    0.0000 N   0  0  0  0  0  0  0  0  0  0  0  0
   -1.5000    1.2990    0.0000 C   0  0  0  0  0  0  0  0  0  0  0  0
   -3.0000    1.2990    0.0000 C   0  0  0  0  0  0  0  0  0  0  0  0
   -3.7500    0.0000    0.0000 N   0  0  0  0  0  0  0  0  0  0  0  0
   -5.2500    0.0000    0.0000 C   0  0  0  0  0  0  0  0  0  0  0  0
   -6.0000    1.2990    0.0000 C   0  0  0  0  0  0  0  0  0  0  0  0
   -7.5000    1.2990    0.0000 C   0  0  0  0  0  0  0  0  0  0  0  0
   -8.2500   -0.0000    0.0000 C   0  0  0  0  0  0  0  0  0  0  0  0
   -7.5000   -1.2990    0.0000 C   0  0  0  0  0  0  0  0  0  0  0  0
   -6.0000   -1.2990    0.0000 N   0  0  0  0  0  0  0  0  0  0  0  0
   -3.0000   -1.2990    0.0000 C   0  0  0  0  0  0  0  0  0  0  0  0
   -1.5000   -1.2990    0.0000 C   0  0  0  0  0  0  0  0  0  0  0  0
    1.5000   -1.2990    0.0000 C   0  0  0  0  0  0  0  0  0  0  0  0
    3.0000   -1.2990    0.0000 C   0  0  0  0  0  0  0  0  0  0  0  0
    6.0000    1.2990    0.0000 C   0  0  0  0  0  0  0  0  0  0  0  0
    7.5000    1.2990    0.0000 C   0  0  0  0  0  0  0  0  0  0  0  0
  1  2  2  0
  2  3  1  0
  3  4  2  0
  5  4  1  6
  5  6  1  0
  6  7  1  0
  7  8  1  0
  8  9  1  1
  9 10  1  0
 10 11  1  0
 11 12  1  0
 12 13  1  0
 13 14  2  0
 14 15  1  0
 15 16  2  0
 16 17  1  0
 17 18  2  0
 12 19  1  0
 19 20  1  0
  8 21  1  0
 21 22  1  0
  4 23  1  0
 23 24  2  0
 24  1  1  0
 22  5  1  0
 20  9  1  0
 18 13  1  0
M  END
>  <ChemBL_ID>  (299) 
CHEMBL456437

>  <Ki>  (299) 
26.9

>  <database>  (299) 
SRSLDB

$$$$

     RDKit          2D

 31 34  0  0  0  0  0  0  0  0999 V2000
   -4.9707   -3.6787    0.0000 C   0  0  0  0  0  0  0  0  0  0  0  0
   -3.6503   -2.9670    0.0000 O   0  0  0  0  0  0  0  0  0  0  0  0
   -3.6064   -1.4677    0.0000 C   0  0  0  0  0  0  0  0  0  0  0  0
   -4.8829   -0.6800    0.0000 C   0  0  0  0  0  0  0  0  0  0  0  0
   -4.8390    0.8194    0.0000 C   0  0  0  0  0  0  0  0  0  0  0  0
   -6.1155    1.6071    0.0000 N   0  0  0  0  0  4  0  0  0  0  0  0
   -7.4360    0.8954    0.0000 O   0  0  0  0  0  0  0  0  0  0  0  0
   -6.0716    3.1064    0.0000 O   0  0  0  0  0  1  0  0  0  0  0  0
   -3.5186    1.5310    0.0000 C   0  0  0  0  0  0  0  0  0  0  0  0
   -2.2420    0.7433    0.0000 C   0  0  0  0  0  0  0  0  0  0  0  0
   -2.2859   -0.7560    0.0000 C   0  0  0  0  0  0  0  0  0  0  0  0
   -1.0094   -1.5437    0.0000 N   0  0  0  0  0  0  0  0  0  0  0  0
    0.3110   -0.8320    0.0000 C   0  0  0  0  0  0  0  0  0  0  0  0
    0.3549    0.6673    0.0000 O   0  0  0  0  0  0  0  0  0  0  0  0
    1.5876   -1.6197    0.0000 O   0  0  0  0  0  0  0  0  0  0  0  0
    2.9080   -0.9081    0.0000 C   0  0  0  0  0  0  0  0  0  0  0  0
    4.1845   -1.6958    0.0000 C   0  0  0  0  0  0  0  0  0  0  0  0
    5.5049   -0.9841    0.0000 C   0  0  0  0  0  0  0  0  0  0  0  0
    6.8254   -0.2724    0.0000 C   0  0  0  0  0  0  0  0  0  0  0  0
    6.8693    1.2269    0.0000 C   0  0  0  0  0  0  0  0  0  0  0  0
    5.5927    2.0146    0.0000 C   0  0  0  0  0  0  0  0  0  0  0  0
    4.2723    1.3030    0.0000 C   0  0  0  0  0  0  0  0  0  0  0  0
    2.9519    0.5913    0.0000 C   0  0  0  0  0  0  0  0  0  0  0  0
    4.2284   -0.1964    0.0000 N   0  0  0  0  0  0  0  0  0  0  0  0
    2.9080   -0.9081    0.0000 C   0  0  0  0  0  0  0  0  0  0  0  0
    1.6314   -0.1204    0.0000 C   0  0  0  0  0  0  0  0  0  0  0  0
    1.6753    1.3790    0.0000 C   0  0  0  0  0  0  0  0  0  0  0  0
    0.3988    2.1667    0.0000 C   0  0  0  0  0  0  0  0  0  0  0  0
   -0.9216    1.4550    0.0000 C   0  0  0  0  0  0  0  0  0  0  0  0
   -0.9655   -0.0443    0.0000 C   0  0  0  0  0  0  0  0  0  0  0  0
    0.3110   -0.8320    0.0000 C   0  0  0  0  0  0  0  0  0  0  0  0
  1  2  1  0
  2  3  1  0
  3  4  2  0
  4  5  1  0
  5  6  1  0
  6  7  2  0
  6  8  1  0
  5  9  2  0
  9 10  1  0
 10 11  2  0
 11 12  1  0
 12 13  1  0
 13 14  2  0
 13 15  1  0
 15 16  1  0
 16 17  1  0
 17 18  1  0
 18 19  1  0
 19 20  1  0
 20 21  1  0
 21 22  1  0
 22 23  1  0
 22 24  1  0
 24 25  1  0
 25 26  1  0
 26 27  2  0
 27 28  1  0
 28 29  2  0
 29 30  1  0
 30 31  2  0
 11  3  1  0
 23 16  1  0
 31 26  1  0
 24 18  1  0
M  CHG  2   6   1   8  -1
M  END
>  <Ki>  (300) 
5.5

>  <database>  (300) 
SRSLDB

$$$$

     RDKit          2D

 39 42  0  0  0  0  0  0  0  0999 V2000
   -2.0188   -2.6760    0.0000 O   0  0  0  0  0  0  0  0  0  0  0  0
   -1.0457   -1.5345    0.0000 C   0  0  0  0  0  0  0  0  0  0  0  0
    0.4295   -1.8066    0.0000 C   0  0  0  0  0  0  0  0  0  0  0  0
    0.9314   -3.2201    0.0000 N   0  0  0  0  0  0  0  0  0  0  0  0
   -0.0418   -4.3616    0.0000 C   0  0  0  0  0  0  0  0  0  0  0  0
   -1.5169   -4.0895    0.0000 C   0  0  0  0  0  0  0  0  0  0  0  0
   -2.4901   -5.2310    0.0000 C   0  0  0  0  0  0  0  0  0  0  0  0
   -3.9652   -4.9589    0.0000 C   0  0  0  0  0  0  0  0  0  0  0  0
   -4.9384   -6.1004    0.0000 I   0  0  0  0  0  0  0  0  0  0  0  0
    2.4065   -3.4922    0.0000 C   0  0  0  0  0  0  0  0  0  0  0  0
    3.3797   -2.3507    0.0000 C   0  0  0  0  0  0  0  0  0  0  0  0
    4.8548   -2.6228    0.0000 C   0  0  0  0  0  0  0  0  0  0  0  0
    5.8280   -1.4813    0.0000 N   0  0  0  0  0  0  0  0  0  0  0  0
    7.3031   -1.7534    0.0000 C   0  0  0  0  0  0  0  0  0  0  0  0
    8.2763   -0.6119    0.0000 C   0  0  0  0  0  0  0  0  0  0  0  0
    7.7743    0.8016    0.0000 N   0  0  0  0  0  0  0  0  0  0  0  0
    8.7475    1.9431    0.0000 C   0  0  0  0  0  0  0  0  0  0  0  0
   10.2226    1.6710    0.0000 C   0  0  0  0  0  0  0  0  0  0  0  0
   11.1958    2.8125    0.0000 C   0  0  0  0  0  0  0  0  0  0  0  0
   10.6939    4.2260    0.0000 C   0  0  0  0  0  0  0  0  0  0  0  0
    9.2187    4.4980    0.0000 C   0  0  0  0  0  0  0  0  0  0  0  0
    8.2456    3.3566    0.0000 C   0  0  0  0  0  0  0  0  0  0  0  0
    6.2992    1.0737    0.0000 C   0  0  0  0  0  0  0  0  0  0  0  0
    5.3260   -0.0678    0.0000 C   0  0  0  0  0  0  0  0  0  0  0  0
   -1.5476   -0.1210    0.0000 N   0  0  0  0  0  0  0  0  0  0  0  0
   -3.0227    0.1510    0.0000 C   0  0  0  0  0  0  0  0  0  0  0  0
   -3.5247    1.5646    0.0000 C   0  0  0  0  0  0  0  0  0  0  0  0
   -4.9998    1.8366    0.0000 C   0  0  0  0  0  0  0  0  0  0  0  0
   -5.9730    0.6952    0.0000 C   0  0  0  0  0  0  0  0  0  0  0  0
   -7.4481    0.9672    0.0000 C   0  0  0  0  0  0  0  0  0  0  0  0
   -8.4213   -0.1742    0.0000 O   0  0  0  0  0  0  0  0  0  0  0  0
   -7.9501    2.3808    0.0000 C   0  0  0  0  0  0  0  0  0  0  0  0
   -6.9769    3.5222    0.0000 C   0  0  0  0  0  0  0  0  0  0  0  0
   -7.4788    4.9357    0.0000 C   0  0  0  0  0  0  0  0  0  0  0  0
   -8.9539    5.2078    0.0000 C   0  0  0  0  0  0  0  0  0  0  0  0
   -9.9271    4.0663    0.0000 C   0  0  0  0  0  0  0  0  0  0  0  0
   -9.4252    2.6528    0.0000 C   0  0  0  0  0  0  0  0  0  0  0  0
   -5.4710   -0.7184    0.0000 C   0  0  0  0  0  0  0  0  0  0  0  0
   -3.9959   -0.9904    0.0000 C   0  0  0  0  0  0  0  0  0  0  0  0
  1  2  2  0
  2  3  1  0
  3  4  1  0
  4  5  1  0
  5  6  1  0
  6  7  1  0
  7  8  1  0
  8  9  1  0
  4 10  1  0
 10 11  1  0
 11 12  1  0
 12 13  1  0
 13 14  1  0
 14 15  1  0
 15 16  1  0
 16 17  1  0
 17 18  1  0
 18 19  1  0
 19 20  1  0
 20 21  1  0
 21 22  1  0
 16 23  1  0
 23 24  1  0
  2 25  1  0
 25 26  1  0
 26 27  2  0
 27 28  1  0
 28 29  2  0
 29 30  1  0
 30 31  2  0
 30 32  1  0
 32 33  2  0
 33 34  1  0
 34 35  2  0
 35 36  1  0
 36 37  2  0
 29 38  1  0
 38 39  2  0
 24 13  1  0
 39 26  1  0
 22 17  1  0
 37 32  1  0
M  END
>  <Ki>  (301) 
44.71

>  <database>  (301) 
SRSLDB

$$$$

     RDKit          2D

 23 28  0  0  0  0  0  0  0  0999 V2000
    6.1568   -2.9144    0.0000 C   0  0  0  0  0  0  0  0  0  0  0  0
    5.9688   -1.4263    0.0000 O   0  0  0  0  0  0  0  0  0  0  0  0
    4.5860   -0.8450    0.0000 C   0  0  0  0  0  0  0  0  0  0  0  0
    3.3912   -1.7518    0.0000 C   0  0  0  0  0  0  0  0  0  0  0  0
    2.0085   -1.1706    0.0000 C   0  0  0  0  0  0  0  0  0  0  0  0
    1.8205    0.3176    0.0000 C   0  0  0  0  0  0  0  0  0  0  0  0
    0.4377    0.8989    0.0000 C   0  0  0  0  0  0  0  0  0  0  0  0
   -0.7571   -0.0080    0.0000 N   0  0  0  0  0  0  0  0  0  0  0  0
   -2.1399    0.5733    0.0000 C   0  0  0  0  0  0  0  0  0  0  0  0
   -2.4824    2.0337    0.0000 C   0  0  0  0  0  0  0  0  0  0  0  0
   -2.9423    0.6059    0.0000 C   0  0  0  0  0  0  0  0  0  0  0  0
   -2.4751   -0.8195    0.0000 C   0  0  0  0  0  0  0  0  0  0  0  0
   -3.6863   -1.7043    0.0000 C   0  0  0  0  0  0  0  0  0  0  0  0
   -4.9021   -0.8257    0.0000 C   0  0  0  0  0  0  0  0  0  0  0  0
   -4.4423    0.6020    0.0000 C   0  0  0  0  0  0  0  0  0  0  0  0
   -4.9095    2.0274    0.0000 C   0  0  0  0  0  0  0  0  0  0  0  0
   -3.6982    2.9122    0.0000 C   0  0  0  0  0  0  0  0  0  0  0  0
   -5.7807   -2.0415    0.0000 C   0  0  0  0  0  0  0  0  0  0  0  0
   -4.5649   -2.9201    0.0000 C   0  0  0  0  0  0  0  0  0  0  0  0
    3.0153    1.2245    0.0000 C   0  0  0  0  0  0  0  0  0  0  0  0
    4.3981    0.6432    0.0000 C   0  0  0  0  0  0  0  0  0  0  0  0
    5.5929    1.5501    0.0000 O   0  0  0  0  0  0  0  0  0  0  0  0
    5.4049    3.0383    0.0000 C   0  0  0  0  0  0  0  0  0  0  0  0
  1  2  1  0
  2  3  1  0
  3  4  2  0
  4  5  1  0
  5  6  2  0
  6  7  1  0
  7  8  1  0
  8  9  1  0
  9 10  1  0
 10 11  1  0
 11 12  1  0
 12 13  1  0
 13 14  1  0
 14 15  1  0
 15 16  1  0
 16 17  1  0
 17 18  1  0
 18 19  1  0
  6 20  1  0
 20 21  2  0
 21 22  1  0
 22 23  1  0
 21  3  1  0
 19  9  1  0
 17 10  1  0
 15 11  1  0
 19 13  1  0
 18 14  1  0
M  END
>  <ChemBL_ID>  (302) 
CHEMBL2432046

>  <Ki>  (302) 
25.0

>  <database>  (302) 
SRSLDB

$$$$

     RDKit          2D

 36 40  0  0  0  0  0  0  0  0999 V2000
   -5.0780   -3.6999    0.0000 C   0  0  0  0  0  0  0  0  0  0  0  0
   -3.5818   -3.5939    0.0000 C   0  0  0  0  0  0  0  0  0  0  0  0
   -2.9254   -2.2451    0.0000 N   0  0  0  0  0  0  0  0  0  0  0  0
   -1.4292   -2.1391    0.0000 C   0  0  0  0  0  0  0  0  0  0  0  0
   -0.7728   -0.7903    0.0000 C   0  0  0  0  0  0  0  0  0  0  0  0
    0.7234   -0.6843    0.0000 C   0  0  0  0  0  0  0  0  0  0  0  0
    1.3797    0.6645    0.0000 C   0  0  0  0  0  0  0  0  0  0  0  0
    2.8760    0.7705    0.0000 C   0  0  0  0  0  0  0  0  0  0  0  0
    3.8412   -0.3777    0.0000 C   0  0  0  0  0  0  0  0  0  0  0  0
    5.2315    0.1855    0.0000 N   0  0  0  0  0  0  0  0  0  0  0  0
    6.5043   -0.6083    0.0000 C   0  0  0  0  0  0  0  0  0  0  0  0
    6.4533   -2.1074    0.0000 C   0  0  0  0  0  0  0  0  0  0  0  0
    7.7261   -2.9011    0.0000 C   0  0  0  0  0  0  0  0  0  0  0  0
    9.0499   -2.1957    0.0000 C   0  0  0  0  0  0  0  0  0  0  0  0
   10.3227   -2.9894    0.0000 F   0  0  0  0  0  0  0  0  0  0  0  0
    9.1008   -0.6966    0.0000 C   0  0  0  0  0  0  0  0  0  0  0  0
    7.8280    0.0971    0.0000 C   0  0  0  0  0  0  0  0  0  0  0  0
    5.1255    1.6817    0.0000 C   0  0  0  0  0  0  0  0  0  0  0  0
    6.1665    2.7617    0.0000 C   0  0  0  0  0  0  0  0  0  0  0  0
    5.7517    4.2032    0.0000 C   0  0  0  0  0  0  0  0  0  0  0  0
    4.2959    4.5647    0.0000 C   0  0  0  0  0  0  0  0  0  0  0  0
    3.2549    3.4848    0.0000 C   0  0  0  0  0  0  0  0  0  0  0  0
    3.6697    2.0433    0.0000 C   0  0  0  0  0  0  0  0  0  0  0  0
   -3.7653   -1.0023    0.0000 C   0  0  0  0  0  0  0  0  0  0  0  0
   -3.2536    0.4077    0.0000 C   0  0  0  0  0  0  0  0  0  0  0  0
   -4.4365    1.3301    0.0000 C   0  0  0  0  0  0  0  0  0  0  0  0
   -5.6792    0.4902    0.0000 C   0  0  0  0  0  0  0  0  0  0  0  0
   -5.2645   -0.9513    0.0000 C   0  0  0  0  0  0  0  0  0  0  0  0
   -6.3055   -2.0313    0.0000 C   0  0  0  0  0  0  0  0  0  0  0  0
   -7.7613   -1.6697    0.0000 C   0  0  0  0  0  0  0  0  0  0  0  0
   -8.1760   -0.2282    0.0000 C   0  0  0  0  0  0  0  0  0  0  0  0
   -9.6318    0.1334    0.0000 O   0  0  0  0  0  0  0  0  0  0  0  0
  -10.0466    1.5749    0.0000 C   0  0  0  0  0  0  0  0  0  0  0  0
   -7.1350    0.8518    0.0000 C   0  0  0  0  0  0  0  0  0  0  0  0
   -7.5498    2.2933    0.0000 O   0  0  0  0  0  0  0  0  0  0  0  0
   -6.5088    3.3732    0.0000 C   0  0  0  0  0  0  0  0  0  0  0  0
  1  2  1  0
  2  3  1  0
  3  4  1  0
  4  5  1  0
  5  6  1  0
  6  7  1  0
  7  8  1  0
  8  9  2  0
  9 10  1  0
 10 11  1  0
 11 12  2  0
 12 13  1  0
 13 14  2  0
 14 15  1  0
 14 16  1  0
 16 17  2  0
 10 18  1  0
 18 19  2  0
 19 20  1  0
 20 21  2  0
 21 22  1  0
 22 23  2  0
 24  3  1  1
 24 25  1  0
 25 26  1  0
 26 27  1  0
 27 28  2  0
 28 29  1  0
 29 30  2  0
 30 31  1  0
 31 32  1  0
 32 33  1  0
 31 34  2  0
 34 35  1  0
 35 36  1  0
 23  8  1  0
 28 24  1  0
 17 11  1  0
 23 18  1  0
 34 27  1  0
M  END
>  <Ki>  (303) 
35.2

>  <database>  (303) 
SRSLDB

$$$$

     RDKit          2D

 32 35  0  0  0  0  0  0  0  0999 V2000
   -4.3777   -2.9930    0.0000 C   0  0  0  0  0  0  0  0  0  0  0  0
   -4.0635   -1.5263    0.0000 O   0  0  0  0  0  0  0  0  0  0  0  0
   -2.6361   -1.0651    0.0000 C   0  0  0  0  0  0  0  0  0  0  0  0
   -2.3219    0.4016    0.0000 C   0  0  0  0  0  0  0  0  0  0  0  0
   -0.8946    0.8628    0.0000 C   0  0  0  0  0  0  0  0  0  0  0  0
    0.2185   -0.1427    0.0000 C   0  0  0  0  0  0  0  0  0  0  0  0
    1.6459    0.3185    0.0000 C   0  0  0  0  0  0  0  0  0  0  0  0
    2.7589   -0.6870    0.0000 C   0  0  0  0  0  0  0  0  0  0  0  0
    4.1863   -0.2258    0.0000 N   0  0  0  0  0  0  0  0  0  0  0  0
    5.2994   -1.2313    0.0000 C   0  0  0  0  0  0  0  0  0  0  0  0
    6.7267   -0.7701    0.0000 C   0  0  0  0  0  0  0  0  0  0  0  0
    7.0410    0.6966    0.0000 C   0  0  0  0  0  0  0  0  0  0  0  0
    5.9279    1.7021    0.0000 C   0  0  0  0  0  0  0  0  0  0  0  0
    4.5005    1.2409    0.0000 C   0  0  0  0  0  0  0  0  0  0  0  0
    3.0732    0.7797    0.0000 C   0  0  0  0  0  0  0  0  0  0  0  0
    2.7589   -0.6870    0.0000 C   0  0  0  0  0  0  0  0  0  0  0  0
    1.3316   -1.1482    0.0000 O   0  0  0  0  0  0  0  0  0  0  0  0
    0.2185   -0.1427    0.0000 C   0  0  0  0  0  0  0  0  0  0  0  0
    0.5328    1.3240    0.0000 O   0  0  0  0  0  0  0  0  0  0  0  0
   -1.2088   -0.6039    0.0000 N   0  0  0  0  0  0  0  0  0  0  0  0
   -2.3219    0.4016    0.0000 C   0  0  0  0  0  0  0  0  0  0  0  0
   -2.0077    1.8683    0.0000 C   0  0  0  0  0  0  0  0  0  0  0  0
   -3.1207    2.8738    0.0000 C   0  0  0  0  0  0  0  0  0  0  0  0
   -2.8065    4.3405    0.0000 C   0  0  0  0  0  0  0  0  0  0  0  0
   -4.5481    2.4126    0.0000 C   0  0  0  0  0  0  0  0  0  0  0  0
   -4.8623    0.9459    0.0000 C   0  0  0  0  0  0  0  0  0  0  0  0
   -3.7492   -0.0596    0.0000 C   0  0  0  0  0  0  0  0  0  0  0  0
   -4.0635   -1.5263    0.0000 O   0  0  0  0  0  0  0  0  0  0  0  0
   -5.4908   -1.9875    0.0000 C   0  0  0  0  0  0  0  0  0  0  0  0
    3.8720   -1.6925    0.0000 C   0  0  0  0  0  0  0  0  0  0  0  0
   -0.0957   -1.6094    0.0000 C   0  0  0  0  0  0  0  0  0  0  0  0
   -1.5231   -2.0706    0.0000 C   0  0  0  0  0  0  0  0  0  0  0  0
  1  2  1  0
  2  3  1  0
  3  4  2  0
  4  5  1  0
  5  6  2  0
  6  7  1  0
  7  8  1  0
  8  9  1  0
  9 10  1  0
 10 11  1  0
 11 12  1  0
 12 13  1  0
 13 14  1  0
 14 15  1  0
 15 16  1  0
 16 17  1  0
 17 18  1  0
 18 19  2  0
 18 20  1  0
 20 21  1  0
 21 22  2  0
 22 23  1  0
 23 24  1  0
 23 25  2  0
 25 26  1  0
 26 27  2  0
 27 28  1  0
 28 29  1  0
 16 30  1  0
  6 31  1  0
 31 32  2  0
 32  3  1  0
 14  9  1  0
 27 21  1  0
 30 10  1  0
M  END
>  <ChemBL_ID>  (304) 
CHEMBL480046

>  <Ki>  (304) 
125.8

>  <database>  (304) 
SRSLDB

$$$$

     RDKit          2D

 28 32  0  0  0  0  0  0  0  0999 V2000
    0.5563    2.3883    0.0000 C   0  0  0  0  0  0  0  0  0  0  0  0
    0.6911    0.8943    0.0000 O   0  0  0  0  0  0  0  0  0  0  0  0
    2.0523    0.2641    0.0000 C   0  0  0  0  0  0  0  0  0  0  0  0
    2.1870   -1.2298    0.0000 C   0  0  0  0  0  0  0  0  0  0  0  0
    0.9606   -2.0935    0.0000 C   0  0  0  0  0  0  0  0  0  0  0  0
    0.9385   -3.5934    0.0000 C   0  0  0  0  0  0  0  0  0  0  0  0
   -0.4947   -4.0358    0.0000 C   0  0  0  0  0  0  0  0  0  0  0  0
   -1.3584   -2.8094    0.0000 C   0  0  0  0  0  0  0  0  0  0  0  0
   -2.8583   -2.7873    0.0000 C   0  0  0  0  0  0  0  0  0  0  0  0
   -3.5890   -1.4773    0.0000 N   0  0  0  0  0  0  0  0  0  0  0  0
   -2.9588   -0.1161    0.0000 C   0  0  0  0  0  0  0  0  0  0  0  0
   -4.0586    0.9039    0.0000 C   0  0  0  0  0  0  0  0  0  0  0  0
   -4.0364    2.4037    0.0000 C   0  0  0  0  0  0  0  0  0  0  0  0
   -5.3243    3.1728    0.0000 C   0  0  0  0  0  0  0  0  0  0  0  0
   -6.6342    2.4420    0.0000 C   0  0  0  0  0  0  0  0  0  0  0  0
   -6.6564    0.9422    0.0000 C   0  0  0  0  0  0  0  0  0  0  0  0
   -5.3685    0.1731    0.0000 C   0  0  0  0  0  0  0  0  0  0  0  0
   -5.0783   -1.2985    0.0000 C   0  0  0  0  0  0  0  0  0  0  0  0
   -0.4589   -1.6090    0.0000 N   0  0  0  0  0  0  0  0  0  0  0  0
    3.5482   -1.8601    0.0000 C   0  0  0  0  0  0  0  0  0  0  0  0
    4.7746   -0.9964    0.0000 C   0  0  0  0  0  0  0  0  0  0  0  0
    6.1358   -1.6266    0.0000 Br  0  0  0  0  0  0  0  0  0  0  0  0
    4.6398    0.4975    0.0000 C   0  0  0  0  0  0  0  0  0  0  0  0
    5.8662    1.3612    0.0000 C   0  0  0  0  0  0  0  0  0  0  0  0
    5.7315    2.8552    0.0000 C   0  0  0  0  0  0  0  0  0  0  0  0
    4.3703    3.4854    0.0000 C   0  0  0  0  0  0  0  0  0  0  0  0
    3.1439    2.6217    0.0000 C   0  0  0  0  0  0  0  0  0  0  0  0
    3.2787    1.1278    0.0000 C   0  0  0  0  0  0  0  0  0  0  0  0
  1  2  1  0
  2  3  1  0
  3  4  2  0
  4  5  1  0
  5  6  2  0
  6  7  1  0
  7  8  2  0
  8  9  1  0
  9 10  1  0
 10 11  1  0
 11 12  1  0
 12 13  2  0
 13 14  1  0
 14 15  2  0
 15 16  1  0
 16 17  2  0
 17 18  1  0
  8 19  1  0
  4 20  1  0
 20 21  2  0
 21 22  1  0
 21 23  1  0
 23 24  2  0
 24 25  1  0
 25 26  2  0
 26 27  1  0
 27 28  2  0
 28  3  1  0
 19  5  1  0
 28 23  1  0
 18 10  1  0
 17 12  1  0
M  END
>  <Ki>  (305) 
87.0

>  <database>  (305) 
SRSLDB

$$$$

     RDKit          2D

 16 18  0  0  0  0  0  0  0  0999 V2000
    4.1924    2.3381    0.0000 F   0  0  0  0  0  0  0  0  0  0  0  0
    3.6136    0.9543    0.0000 C   0  0  0  0  0  0  0  0  0  0  0  0
    4.5227   -0.2389    0.0000 C   0  0  0  0  0  0  0  0  0  0  0  0
    3.9439   -1.6227    0.0000 C   0  0  0  0  0  0  0  0  0  0  0  0
    2.4561   -1.8134    0.0000 C   0  0  0  0  0  0  0  0  0  0  0  0
    1.5470   -0.6203    0.0000 C   0  0  0  0  0  0  0  0  0  0  0  0
    0.0592   -0.8110    0.0000 C   0  0  0  0  0  0  0  0  0  0  0  0
   -0.8499    0.3822    0.0000 C   0  0  0  0  0  0  0  0  0  0  0  0
   -2.3377    0.1915    0.0000 N   0  0  0  0  0  0  0  0  0  0  0  0
   -3.0579   -1.1242    0.0000 C   0  0  0  0  0  0  0  0  0  0  0  0
   -4.5319   -0.8458    0.0000 C   0  0  0  0  0  0  0  0  0  0  0  0
   -4.7226    0.6420    0.0000 C   0  0  0  0  0  0  0  0  0  0  0  0
   -3.3665    1.2831    0.0000 C   0  0  0  0  0  0  0  0  0  0  0  0
   -1.8925    1.0047    0.0000 C   0  0  0  0  0  0  0  0  0  0  0  0
   -1.7019   -0.4831    0.0000 C   0  0  0  0  0  0  0  0  0  0  0  0
    2.1258    0.7636    0.0000 C   0  0  0  0  0  0  0  0  0  0  0  0
  1  2  1  0
  2  3  2  0
  3  4  1  0
  4  5  2  0
  5  6  1  0
  6  7  1  0
  7  8  1  0
  8  9  1  0
  9 10  1  0
 10 11  1  0
 11 12  1  0
 12 13  1  0
 13 14  1  0
 14 15  1  0
  6 16  2  0
 16  2  1  0
 13  9  1  0
 15 10  1  0
M  END
>  <ChemBL_ID>  (306) 
CHEMBL2030628

>  <Ki>  (306) 
29.5

>  <database>  (306) 
SRSLDB

$$$$

     RDKit          2D

 30 34  0  0  0  0  0  0  0  0999 V2000
    6.8256   -3.3186    0.0000 C   0  0  0  0  0  0  0  0  0  0  0  0
    5.5011   -4.0225    0.0000 C   0  0  0  0  0  0  0  0  0  0  0  0
    4.2292   -3.2274    0.0000 C   0  0  0  0  0  0  0  0  0  0  0  0
    4.2818   -1.7284    0.0000 C   0  0  0  0  0  0  0  0  0  0  0  0
    5.6063   -1.0244    0.0000 C   0  0  0  0  0  0  0  0  0  0  0  0
    6.8783   -1.8195    0.0000 C   0  0  0  0  0  0  0  0  0  0  0  0
    5.3461    0.4529    0.0000 C   0  0  0  0  0  0  0  0  0  0  0  0
    6.3883    1.5317    0.0000 C   0  0  0  0  0  0  0  0  0  0  0  0
    6.1281    3.0090    0.0000 C   0  0  0  0  0  0  0  0  0  0  0  0
    7.4527    3.7129    0.0000 C   0  0  0  0  0  0  0  0  0  0  0  0
    8.5315    2.6707    0.0000 O   0  0  0  0  0  0  0  0  0  0  0  0
    7.8737    1.3227    0.0000 C   0  0  0  0  0  0  0  0  0  0  0  0
    3.8608    0.6619    0.0000 C   0  0  0  0  0  0  0  0  0  0  0  0
    3.2030   -0.6862    0.0000 N   0  0  0  0  0  0  0  0  0  0  0  0
    1.7257   -0.9464    0.0000 C   0  0  0  0  0  0  0  0  0  0  0  0
    0.7617    0.2029    0.0000 C   0  0  0  0  0  0  0  0  0  0  0  0
   -0.7155   -0.0573    0.0000 C   0  0  0  0  0  0  0  0  0  0  0  0
   -1.6795    1.0919    0.0000 C   0  0  0  0  0  0  0  0  0  0  0  0
   -3.1568    0.8317    0.0000 N   0  0  0  0  0  0  0  0  0  0  0  0
   -4.1207    1.9809    0.0000 C   0  0  0  0  0  0  0  0  0  0  0  0
   -5.5980    1.7207    0.0000 C   0  0  0  0  0  0  0  0  0  0  0  0
   -6.1113    0.3113    0.0000 N   0  0  0  0  0  0  0  0  0  0  0  0
   -7.5885    0.0511    0.0000 C   0  0  0  0  0  0  0  0  0  0  0  0
   -8.5525    1.2003    0.0000 C   0  0  0  0  0  0  0  0  0  0  0  0
  -10.0298    0.9401    0.0000 C   0  0  0  0  0  0  0  0  0  0  0  0
  -10.5430   -0.4693    0.0000 C   0  0  0  0  0  0  0  0  0  0  0  0
   -9.5791   -1.6186    0.0000 C   0  0  0  0  0  0  0  0  0  0  0  0
   -8.1018   -1.3584    0.0000 C   0  0  0  0  0  0  0  0  0  0  0  0
   -5.1473   -0.8380    0.0000 C   0  0  0  0  0  0  0  0  0  0  0  0
   -3.6700   -0.5778    0.0000 C   0  0  0  0  0  0  0  0  0  0  0  0
  1  2  2  0
  2  3  1  0
  3  4  2  0
  4  5  1  0
  5  6  2  0
  5  7  1  0
  7  8  1  0
  8  9  1  0
  9 10  2  0
 10 11  1  0
 11 12  1  0
  7 13  2  0
 13 14  1  0
 14 15  1  0
 15 16  1  0
 16 17  1  0
 17 18  1  0
 18 19  1  0
 19 20  1  0
 20 21  1  0
 21 22  1  0
 22 23  1  0
 23 24  1  0
 24 25  1  0
 25 26  1  0
 26 27  1  0
 27 28  1  0
 22 29  1  0
 29 30  1  0
  6  1  1  0
 12  8  2  0
 30 19  1  0
 14  4  1  0
 28 23  1  0
M  END
>  <ChemBL_ID>  (307) 
CHEMBL1831167

>  <Ki>  (307) 
10.07

>  <database>  (307) 
SRSLDB

$$$$

     RDKit          2D

 23 29  0  0  0  0  0  0  0  0999 V2000
    0.0986   -2.5597    0.0000 C   0  0  0  0  0  0  0  0  0  0  0  0
    0.6729   -1.1740    0.0000 N   0  0  0  0  0  0  0  0  0  0  0  0
   -0.2399    0.0162    0.0000 C   0  0  0  0  0  0  0  0  0  0  0  0
   -1.7272   -0.1792    0.0000 C   0  0  0  0  0  0  0  0  0  0  0  0
   -2.3015   -1.5649    0.0000 C   0  0  0  0  0  0  0  0  0  0  0  0
   -3.7887   -1.7604    0.0000 C   0  0  0  0  0  0  0  0  0  0  0  0
   -4.7016   -0.5701    0.0000 C   0  0  0  0  0  0  0  0  0  0  0  0
   -4.1272    0.8155    0.0000 C   0  0  0  0  0  0  0  0  0  0  0  0
   -2.6400    1.0110    0.0000 C   0  0  0  0  0  0  0  0  0  0  0  0
   -5.2676    1.7900    0.0000 O   0  0  0  0  0  0  0  0  0  0  0  0
   -6.5468    1.0065    0.0000 C   0  0  0  0  0  0  0  0  0  0  0  0
   -6.1969   -0.4521    0.0000 O   0  0  0  0  0  0  0  0  0  0  0  0
    2.1601   -0.9785    0.0000 C   0  0  0  0  0  0  0  0  0  0  0  0
    3.1924   -2.0668    0.0000 C   0  0  0  0  0  0  0  0  0  0  0  0
    2.8694   -0.6020    0.0000 C   0  0  0  0  0  0  0  0  0  0  0  0
    1.7471    0.3932    0.0000 C   0  0  0  0  0  0  0  0  0  0  0  0
    2.3468    1.7681    0.0000 C   0  0  0  0  0  0  0  0  0  0  0  0
    3.8397    1.6226    0.0000 C   0  0  0  0  0  0  0  0  0  0  0  0
    4.1627    0.1578    0.0000 C   0  0  0  0  0  0  0  0  0  0  0  0
    5.2850   -0.8374    0.0000 C   0  0  0  0  0  0  0  0  0  0  0  0
    4.6854   -2.2123    0.0000 C   0  0  0  0  0  0  0  0  0  0  0  0
    3.9851    3.1156    0.0000 C   0  0  0  0  0  0  0  0  0  0  0  0
    2.4922    3.2610    0.0000 C   0  0  0  0  0  0  0  0  0  0  0  0
  1  2  1  0
  2  3  1  0
  3  4  1  0
  4  5  1  0
  5  6  2  0
  6  7  1  0
  7  8  2  0
  8  9  1  0
  8 10  1  0
 10 11  1  0
 11 12  1  0
  2 13  1  0
 13 14  1  0
 14 15  1  0
 15 16  1  0
 16 17  1  0
 17 18  1  0
 18 19  1  0
 19 20  1  0
 20 21  1  0
 21 22  1  0
 22 23  1  0
  9  4  2  0
 23 13  1  0
 12  7  1  0
 21 14  1  0
 19 15  1  0
 23 17  1  0
 22 18  1  0
M  END
>  <ChemBL_ID>  (308) 
CHEMBL2432062

>  <Ki>  (308) 
62.0

>  <database>  (308) 
SRSLDB

$$$$

     RDKit          2D

 31 34  0  0  0  0  0  0  0  0999 V2000
    5.8635   -1.6913    0.0000 C   0  0  0  0  0  0  0  0  0  0  0  0
    5.3604   -0.2782    0.0000 C   0  0  0  0  0  0  0  0  0  0  0  0
    6.3327    0.8641    0.0000 O   0  0  0  0  0  0  0  0  0  0  0  0
    3.8851   -0.0072    0.0000 C   0  0  0  0  0  0  0  0  0  0  0  0
    4.4081    1.3986    0.0000 C   0  0  0  0  0  0  0  0  0  0  0  0
    5.8871    1.6486    0.0000 C   0  0  0  0  0  0  0  0  0  0  0  0
    6.4101    3.0545    0.0000 C   0  0  0  0  0  0  0  0  0  0  0  0
    5.4541    4.2104    0.0000 C   0  0  0  0  0  0  0  0  0  0  0  0
    3.9750    3.9604    0.0000 C   0  0  0  0  0  0  0  0  0  0  0  0
    3.4521    2.5545    0.0000 C   0  0  0  0  0  0  0  0  0  0  0  0
    2.5914    0.7519    0.0000 C   0  0  0  0  0  0  0  0  0  0  0  0
    1.2871    0.0111    0.0000 C   0  0  0  0  0  0  0  0  0  0  0  0
    1.2765   -1.4888    0.0000 N   0  0  0  0  0  0  0  0  0  0  0  0
   -0.0278   -2.2296    0.0000 C   0  0  0  0  0  0  0  0  0  0  0  0
   -1.3215   -1.4704    0.0000 C   0  0  0  0  0  0  0  0  0  0  0  0
   -2.6258   -2.2112    0.0000 C   0  0  0  0  0  0  0  0  0  0  0  0
   -3.9195   -1.4521    0.0000 O   0  0  0  0  0  0  0  0  0  0  0  0
   -3.9089    0.0479    0.0000 C   0  0  0  0  0  0  0  0  0  0  0  0
   -5.2026    0.8071    0.0000 C   0  0  0  0  0  0  0  0  0  0  0  0
   -5.1920    2.3070    0.0000 C   0  0  0  0  0  0  0  0  0  0  0  0
   -6.4857    3.0662    0.0000 C   0  0  0  0  0  0  0  0  0  0  0  0
   -7.7900    2.3254    0.0000 C   0  0  0  0  0  0  0  0  0  0  0  0
   -9.0837    3.0846    0.0000 F   0  0  0  0  0  0  0  0  0  0  0  0
   -7.8006    0.8254    0.0000 C   0  0  0  0  0  0  0  0  0  0  0  0
   -6.5069    0.0663    0.0000 C   0  0  0  0  0  0  0  0  0  0  0  0
   -2.6365   -3.7112    0.0000 C   0  0  0  0  0  0  0  0  0  0  0  0
   -1.3428   -4.4704    0.0000 C   0  0  0  0  0  0  0  0  0  0  0  0
   -0.0384   -3.7296    0.0000 C   0  0  0  0  0  0  0  0  0  0  0  0
    1.2553   -4.4888    0.0000 O   0  0  0  0  0  0  0  0  0  0  0  0
    2.5702   -2.2480    0.0000 C   0  0  0  0  0  0  0  0  0  0  0  0
    3.8745   -1.5072    0.0000 C   0  0  0  0  0  0  0  0  0  0  0  0
  1  2  1  0
  2  3  2  0
  2  4  1  0
  4  5  1  0
  5  6  2  0
  6  7  1  0
  7  8  2  0
  8  9  1  0
  9 10  2  0
  4 11  1  0
 11 12  1  0
 12 13  1  0
 14 13  1  1
 14 15  1  0
 15 16  1  0
 16 17  1  6
 17 18  1  0
 18 19  1  0
 19 20  2  0
 20 21  1  0
 21 22  2  0
 22 23  1  0
 22 24  1  0
 24 25  2  0
 16 26  1  0
 26 27  1  0
 27 28  1  0
 28 29  1  6
 13 30  1  0
 30 31  1  0
 31  4  1  0
 10  5  1  0
 28 14  1  0
 25 19  1  0
M  END
>  <Ki>  (309) 
18.8

>  <database>  (309) 
SRSLDB

$$$$

     RDKit          2D

 31 34  0  0  0  0  0  0  0  0999 V2000
    6.5879    3.6181    0.0000 C   0  0  0  0  0  0  0  0  0  0  0  0
    5.7488    2.3747    0.0000 N   0  0  0  0  0  0  0  0  0  0  0  0
    4.2497    2.3227    0.0000 C   0  0  0  0  0  0  0  0  0  0  0  0
    3.3265    3.5050    0.0000 O   0  0  0  0  0  0  0  0  0  0  0  0
    3.8359    0.8809    0.0000 N   0  0  0  0  0  0  0  0  0  0  0  0
    2.4263    0.3682    0.0000 C   0  0  0  0  0  0  0  0  0  0  0  0
    1.2774    1.3327    0.0000 C   0  0  0  0  0  0  0  0  0  0  0  0
   -0.1322    0.8200    0.0000 C   0  0  0  0  0  0  0  0  0  0  0  0
   -1.2811    1.7844    0.0000 C   0  0  0  0  0  0  0  0  0  0  0  0
   -2.6907    1.2717    0.0000 N   0  0  0  0  0  0  0  0  0  0  0  0
   -3.8396    2.2362    0.0000 C   0  0  0  0  0  0  0  0  0  0  0  0
   -5.2492    1.7235    0.0000 C   0  0  0  0  0  0  0  0  0  0  0  0
   -5.5101    0.2463    0.0000 N   0  0  0  0  0  0  0  0  0  0  0  0
   -6.9197   -0.2664    0.0000 C   0  0  0  0  0  0  0  0  0  0  0  0
   -8.0686    0.6980    0.0000 C   0  0  0  0  0  0  0  0  0  0  0  0
   -9.4782    0.1853    0.0000 C   0  0  0  0  0  0  0  0  0  0  0  0
   -9.7390   -1.2918    0.0000 C   0  0  0  0  0  0  0  0  0  0  0  0
  -11.1487   -1.8045    0.0000 F   0  0  0  0  0  0  0  0  0  0  0  0
   -8.5902   -2.2563    0.0000 C   0  0  0  0  0  0  0  0  0  0  0  0
   -7.1805   -1.7436    0.0000 C   0  0  0  0  0  0  0  0  0  0  0  0
   -4.3612   -0.7181    0.0000 C   0  0  0  0  0  0  0  0  0  0  0  0
   -2.9516   -0.2054    0.0000 C   0  0  0  0  0  0  0  0  0  0  0  0
    5.0793    0.0419    0.0000 C   0  0  0  0  0  0  0  0  0  0  0  0
    5.2877   -1.4436    0.0000 C   0  0  0  0  0  0  0  0  0  0  0  0
    6.6783   -2.0058    0.0000 C   0  0  0  0  0  0  0  0  0  0  0  0
    6.8868   -3.4913    0.0000 N   0  0  0  0  0  4  0  0  0  0  0  0
    8.2774   -4.0535    0.0000 O   0  0  0  0  0  0  0  0  0  0  0  0
    5.7045   -4.4145    0.0000 O   0  0  0  0  0  1  0  0  0  0  0  0
    7.8606   -1.0826    0.0000 C   0  0  0  0  0  0  0  0  0  0  0  0
    7.6522    0.4028    0.0000 C   0  0  0  0  0  0  0  0  0  0  0  0
    6.2615    0.9651    0.0000 C   0  0  0  0  0  0  0  0  0  0  0  0
  1  2  1  0
  2  3  1  0
  3  4  2  0
  3  5  1  0
  5  6  1  0
  6  7  1  0
  7  8  1  0
  8  9  1  0
  9 10  1  0
 10 11  1  0
 11 12  1  0
 12 13  1  0
 13 14  1  0
 14 15  2  0
 15 16  1  0
 16 17  2  0
 17 18  1  0
 17 19  1  0
 19 20  2  0
 13 21  1  0
 21 22  1  0
  5 23  1  0
 23 24  2  0
 24 25  1  0
 25 26  1  0
 26 27  2  0
 26 28  1  0
 25 29  2  0
 29 30  1  0
 30 31  2  0
 31  2  1  0
 22 10  1  0
 31 23  1  0
 20 14  1  0
M  CHG  2  26   1  28  -1
M  END
>  <Ki>  (310) 
4.72

>  <database>  (310) 
SRSLDB

$$$$

     RDKit          2D

 29 32  0  0  0  0  0  0  0  0999 V2000
  -10.7169   -0.6925    0.0000 C   0  0  0  0  0  0  0  0  0  0  0  0
   -9.3019   -1.1904    0.0000 O   0  0  0  0  0  0  0  0  0  0  0  0
   -8.1632   -0.2140    0.0000 C   0  0  0  0  0  0  0  0  0  0  0  0
   -8.4395    1.2603    0.0000 C   0  0  0  0  0  0  0  0  0  0  0  0
   -7.3008    2.2368    0.0000 C   0  0  0  0  0  0  0  0  0  0  0  0
   -5.8858    1.7388    0.0000 C   0  0  0  0  0  0  0  0  0  0  0  0
   -5.6096    0.2645    0.0000 C   0  0  0  0  0  0  0  0  0  0  0  0
   -6.7483   -0.7119    0.0000 C   0  0  0  0  0  0  0  0  0  0  0  0
   -6.4720   -2.1863    0.0000 C   0  0  0  0  0  0  0  0  0  0  0  0
   -5.0571   -2.6842    0.0000 C   0  0  0  0  0  0  0  0  0  0  0  0
   -3.9184   -1.7078    0.0000 C   0  0  0  0  0  0  0  0  0  0  0  0
   -4.1946   -0.2334    0.0000 C   0  0  0  0  0  0  0  0  0  0  0  0
   -3.0560    0.7430    0.0000 C   0  0  0  0  0  0  0  0  0  0  0  0
   -1.6410    0.2451    0.0000 C   0  0  0  0  0  0  0  0  0  0  0  0
   -0.5023    1.2215    0.0000 C   0  0  0  0  0  0  0  0  0  0  0  0
    0.9126    0.7236    0.0000 C   0  0  0  0  0  0  0  0  0  0  0  0
    2.0513    1.7000    0.0000 C   0  0  0  0  0  0  0  0  0  0  0  0
    3.4663    1.2021    0.0000 N   0  0  0  0  0  0  0  0  0  0  0  0
    3.7425   -0.2723    0.0000 C   0  0  0  0  0  0  0  0  0  0  0  0
    5.1575   -0.7702    0.0000 C   0  0  0  0  0  0  0  0  0  0  0  0
    6.2961    0.2062    0.0000 C   0  0  0  0  0  0  0  0  0  0  0  0
    7.7111   -0.2917    0.0000 C   0  0  0  0  0  0  0  0  0  0  0  0
    7.9874   -1.7661    0.0000 C   0  0  0  0  0  0  0  0  0  0  0  0
    9.4023   -2.2640    0.0000 C   0  0  0  0  0  0  0  0  0  0  0  0
   10.5410   -1.2876    0.0000 C   0  0  0  0  0  0  0  0  0  0  0  0
   10.2647    0.1868    0.0000 C   0  0  0  0  0  0  0  0  0  0  0  0
    8.8498    0.6847    0.0000 C   0  0  0  0  0  0  0  0  0  0  0  0
    6.0199    1.6805    0.0000 C   0  0  0  0  0  0  0  0  0  0  0  0
    4.6049    2.1785    0.0000 C   0  0  0  0  0  0  0  0  0  0  0  0
  1  2  1  0
  2  3  1  0
  3  4  2  0
  4  5  1  0
  5  6  2  0
  6  7  1  0
  7  8  2  0
  8  9  1  0
  9 10  1  0
 10 11  1  0
 11 12  1  0
 12 13  1  0
 13 14  1  0
 14 15  1  0
 15 16  1  0
 16 17  1  0
 17 18  1  0
 18 19  1  0
 19 20  1  0
 20 21  1  0
 21 22  1  0
 22 23  1  0
 23 24  1  0
 24 25  1  0
 25 26  1  0
 26 27  1  0
 21 28  1  0
 28 29  1  0
  8  3  1  0
 29 18  1  0
 12  7  1  0
 27 22  1  0
M  END
>  <ChemBL_ID>  (311) 
CHEMBL584767

>  <Ki>  (311) 
72.3

>  <database>  (311) 
SRSLDB

$$$$

     RDKit          2D

 27 30  0  0  0  0  0  0  0  0999 V2000
    1.9429    1.1779    0.0000 O   0  0  0  0  0  0  0  0  0  0  0  0
    2.0631   -0.3173    0.0000 C   0  0  0  0  0  0  0  0  0  0  0  0
    0.8283   -1.1690    0.0000 C   0  0  0  0  0  0  0  0  0  0  0  0
   -0.5266   -0.5255    0.0000 N   0  0  0  0  0  0  0  0  0  0  0  0
   -0.6468    0.9697    0.0000 C   0  0  0  0  0  0  0  0  0  0  0  0
   -2.0018    1.6132    0.0000 C   0  0  0  0  0  0  0  0  0  0  0  0
   -3.2365    0.7615    0.0000 C   0  0  0  0  0  0  0  0  0  0  0  0
   -3.8608    2.1254    0.0000 O   0  0  0  0  0  0  0  0  0  0  0  0
   -4.6881    0.3835    0.0000 C   0  0  0  0  0  0  0  0  0  0  0  0
   -5.7413    1.4516    0.0000 C   0  0  0  0  0  0  0  0  0  0  0  0
   -7.1929    1.0736    0.0000 C   0  0  0  0  0  0  0  0  0  0  0  0
   -7.5913   -0.3725    0.0000 C   0  0  0  0  0  0  0  0  0  0  0  0
   -9.0429   -0.7505    0.0000 Br  0  0  0  0  0  0  0  0  0  0  0  0
   -6.5381   -1.4406    0.0000 C   0  0  0  0  0  0  0  0  0  0  0  0
   -5.0866   -1.0626    0.0000 C   0  0  0  0  0  0  0  0  0  0  0  0
   -3.1163   -0.7337    0.0000 C   0  0  0  0  0  0  0  0  0  0  0  0
   -1.7614   -1.3772    0.0000 C   0  0  0  0  0  0  0  0  0  0  0  0
    3.4181   -0.9608    0.0000 C   0  0  0  0  0  0  0  0  0  0  0  0
    3.6939   -2.4353    0.0000 C   0  0  0  0  0  0  0  0  0  0  0  0
    5.1814   -2.6286    0.0000 N   0  0  0  0  0  0  0  0  0  0  0  0
    5.8249   -1.2736    0.0000 C   0  0  0  0  0  0  0  0  0  0  0  0
    7.2624   -0.8452    0.0000 C   0  0  0  0  0  0  0  0  0  0  0  0
    7.6101    0.6140    0.0000 C   0  0  0  0  0  0  0  0  0  0  0  0
    6.5203    1.6447    0.0000 C   0  0  0  0  0  0  0  0  0  0  0  0
    6.8681    3.1038    0.0000 O   0  0  0  0  0  0  0  0  0  0  0  0
    5.0828    1.2162    0.0000 C   0  0  0  0  0  0  0  0  0  0  0  0
    4.7351   -0.2429    0.0000 C   0  0  0  0  0  0  0  0  0  0  0  0
  1  2  2  0
  2  3  1  0
  3  4  1  0
  4  5  1  0
  5  6  1  0
  6  7  1  0
  7  8  1  0
  7  9  1  0
  9 10  2  0
 10 11  1  0
 11 12  2  0
 12 13  1  0
 12 14  1  0
 14 15  2  0
  7 16  1  0
 16 17  1  0
  2 18  1  0
 18 19  2  0
 19 20  1  0
 20 21  1  0
 21 22  2  0
 22 23  1  0
 23 24  2  0
 24 25  1  0
 24 26  1  0
 26 27  2  0
 17  4  1  0
 27 18  1  0
 15  9  1  0
 27 21  1  0
M  END
>  <ChemBL_ID>  (312) 
CHEMBL3099053

>  <Ki>  (312) 
57.0

>  <database>  (312) 
SRSLDB

$$$$

     RDKit          2D

 31 34  0  0  0  0  0  0  0  0999 V2000
    6.7424    3.5977    0.0000 C   0  0  0  0  0  0  0  0  0  0  0  0
    5.8919    2.3621    0.0000 N   0  0  0  0  0  0  0  0  0  0  0  0
    4.3924    2.3239    0.0000 C   0  0  0  0  0  0  0  0  0  0  0  0
    3.4801    3.5145    0.0000 O   0  0  0  0  0  0  0  0  0  0  0  0
    3.9654    0.8859    0.0000 N   0  0  0  0  0  0  0  0  0  0  0  0
    2.5510    0.3862    0.0000 C   0  0  0  0  0  0  0  0  0  0  0  0
    1.4111    1.3612    0.0000 C   0  0  0  0  0  0  0  0  0  0  0  0
   -0.0032    0.8615    0.0000 C   0  0  0  0  0  0  0  0  0  0  0  0
   -1.1431    1.8364    0.0000 C   0  0  0  0  0  0  0  0  0  0  0  0
   -2.5574    1.3367    0.0000 N   0  0  0  0  0  0  0  0  0  0  0  0
   -3.6974    2.3117    0.0000 C   0  0  0  0  0  0  0  0  0  0  0  0
   -5.1117    1.8119    0.0000 C   0  0  0  0  0  0  0  0  0  0  0  0
   -5.3861    0.3373    0.0000 N   0  0  0  0  0  0  0  0  0  0  0  0
   -6.8004   -0.1625    0.0000 C   0  0  0  0  0  0  0  0  0  0  0  0
   -7.9403    0.8125    0.0000 C   0  0  0  0  0  0  0  0  0  0  0  0
   -9.3546    0.3128    0.0000 C   0  0  0  0  0  0  0  0  0  0  0  0
   -9.6290   -1.1619    0.0000 C   0  0  0  0  0  0  0  0  0  0  0  0
  -11.0433   -1.6616    0.0000 F   0  0  0  0  0  0  0  0  0  0  0  0
   -8.4891   -2.1369    0.0000 C   0  0  0  0  0  0  0  0  0  0  0  0
   -7.0747   -1.6372    0.0000 C   0  0  0  0  0  0  0  0  0  0  0  0
   -4.2461   -0.6377    0.0000 C   0  0  0  0  0  0  0  0  0  0  0  0
   -2.8318   -0.1380    0.0000 C   0  0  0  0  0  0  0  0  0  0  0  0
    5.2010    0.0355    0.0000 C   0  0  0  0  0  0  0  0  0  0  0  0
    5.3957   -1.4518    0.0000 C   0  0  0  0  0  0  0  0  0  0  0  0
    6.7811   -2.0268    0.0000 C   0  0  0  0  0  0  0  0  0  0  0  0
    6.9759   -3.5141    0.0000 N   0  0  0  0  0  0  0  0  0  0  0  0
    5.7852   -4.4264    0.0000 C   0  0  0  0  0  0  0  0  0  0  0  0
    4.5945   -5.3388    0.0000 S   0  0  0  0  0  0  0  0  0  0  0  0
    7.9718   -1.1145    0.0000 C   0  0  0  0  0  0  0  0  0  0  0  0
    7.7770    0.3728    0.0000 C   0  0  0  0  0  0  0  0  0  0  0  0
    6.3916    0.9478    0.0000 C   0  0  0  0  0  0  0  0  0  0  0  0
  1  2  1  0
  2  3  1  0
  3  4  2  0
  3  5  1  0
  5  6  1  0
  6  7  1  0
  7  8  1  0
  8  9  1  0
  9 10  1  0
 10 11  1  0
 11 12  1  0
 12 13  1  0
 13 14  1  0
 14 15  2  0
 15 16  1  0
 16 17  2  0
 17 18  1  0
 17 19  1  0
 19 20  2  0
 13 21  1  0
 21 22  1  0
  5 23  1  0
 23 24  2  0
 24 25  1  0
 25 26  1  0
 26 27  2  0
 27 28  2  0
 25 29  2  0
 29 30  1  0
 30 31  2  0
 31  2  1  0
 22 10  1  0
 31 23  1  0
 20 14  1  0
M  END
>  <Ki>  (313) 
30.1

>  <database>  (313) 
SRSLDB

$$$$

     RDKit          2D

 24 27  0  0  0  0  0  0  0  0999 V2000
    1.5905   -2.8528    0.0000 O   0  0  0  0  0  0  0  0  0  0  0  0
    2.4841   -1.6480    0.0000 C   0  0  0  0  0  0  0  0  0  0  0  0
    3.9743   -1.8195    0.0000 C   0  0  0  0  0  0  0  0  0  0  0  0
    4.8679   -0.6147    0.0000 C   0  0  0  0  0  0  0  0  0  0  0  0
    6.3580   -0.7863    0.0000 C   0  0  0  0  0  0  0  0  0  0  0  0
    7.2517    0.4185    0.0000 C   0  0  0  0  0  0  0  0  0  0  0  0
    6.6551    1.7948    0.0000 C   0  0  0  0  0  0  0  0  0  0  0  0
    5.1649    1.9663    0.0000 C   0  0  0  0  0  0  0  0  0  0  0  0
    4.2713    0.7615    0.0000 C   0  0  0  0  0  0  0  0  0  0  0  0
    2.7812    0.9330    0.0000 C   0  0  0  0  0  0  0  0  0  0  0  0
    1.8876   -0.2717    0.0000 C   0  0  0  0  0  0  0  0  0  0  0  0
    0.3974   -0.1002    0.0000 N   0  0  0  0  0  0  0  0  0  0  0  0
   -0.1992    1.2761    0.0000 C   0  0  0  0  0  0  0  0  0  0  0  0
   -1.6893    1.4476    0.0000 C   0  0  0  0  0  0  0  0  0  0  0  0
   -2.5829    0.2428    0.0000 C   0  0  0  0  0  0  0  0  0  0  0  0
   -4.0731    0.4143    0.0000 C   0  0  0  0  0  0  0  0  0  0  0  0
   -4.6696    1.7906    0.0000 C   0  0  0  0  0  0  0  0  0  0  0  0
   -6.1598    1.9621    0.0000 C   0  0  0  0  0  0  0  0  0  0  0  0
   -7.0534    0.7573    0.0000 C   0  0  0  0  0  0  0  0  0  0  0  0
   -6.4569   -0.6190    0.0000 C   0  0  0  0  0  0  0  0  0  0  0  0
   -7.3505   -1.8237    0.0000 I   0  0  0  0  0  0  0  0  0  0  0  0
   -4.9667   -0.7905    0.0000 C   0  0  0  0  0  0  0  0  0  0  0  0
   -1.9864   -1.1335    0.0000 C   0  0  0  0  0  0  0  0  0  0  0  0
   -0.4962   -1.3050    0.0000 C   0  0  0  0  0  0  0  0  0  0  0  0
  2  1  1  1
  2  3  1  0
  3  4  1  0
  4  5  2  0
  5  6  1  0
  6  7  2  0
  7  8  1  0
  8  9  2  0
  9 10  1  0
 10 11  1  0
 11 12  1  6
 12 13  1  0
 13 14  1  0
 14 15  1  0
 15 16  1  0
 16 17  2  0
 17 18  1  0
 18 19  2  0
 19 20  1  0
 20 21  1  0
 20 22  2  0
 15 23  1  0
 23 24  1  0
 11  2  1  0
 24 12  1  0
  9  4  1  0
 22 16  1  0
M  END
>  <ChemBL_ID>  (314) 
CHEMBL261716

>  <Ki>  (314) 
46.7

>  <database>  (314) 
SRSLDB

$$$$

     RDKit          2D

 33 37  0  0  0  0  0  0  0  0999 V2000
    3.1789    4.1542    0.0000 C   0  0  0  0  0  0  0  0  0  0  0  0
    1.9954    3.2327    0.0000 N   0  0  0  0  0  0  0  0  0  0  0  0
    0.6055    3.7970    0.0000 C   0  0  0  0  0  0  0  0  0  0  0  0
   -0.5780    2.8755    0.0000 C   0  0  0  0  0  0  0  0  0  0  0  0
   -1.9679    3.4398    0.0000 C   0  0  0  0  0  0  0  0  0  0  0  0
   -3.1514    2.5183    0.0000 N   0  0  0  0  0  0  0  0  0  0  0  0
   -4.5926    2.9342    0.0000 C   0  0  0  0  0  0  0  0  0  0  0  0
   -5.1033    4.3446    0.0000 O   0  0  0  0  0  0  0  0  0  0  0  0
   -5.4335    1.6921    0.0000 O   0  0  0  0  0  0  0  0  0  0  0  0
   -4.5120    0.5085    0.0000 C   0  0  0  0  0  0  0  0  0  0  0  0
   -4.7750   -0.9683    0.0000 C   0  0  0  0  0  0  0  0  0  0  0  0
   -3.6276   -1.9344    0.0000 C   0  0  0  0  0  0  0  0  0  0  0  0
   -2.2172   -1.4238    0.0000 C   0  0  0  0  0  0  0  0  0  0  0  0
   -1.9542    0.0530    0.0000 C   0  0  0  0  0  0  0  0  0  0  0  0
   -3.1016    1.0191    0.0000 C   0  0  0  0  0  0  0  0  0  0  0  0
   -1.2957   -2.6074    0.0000 C   0  0  0  0  0  0  0  0  0  0  0  0
    0.2035   -2.5576    0.0000 C   0  0  0  0  0  0  0  0  0  0  0  0
    0.9962   -3.8310    0.0000 C   0  0  0  0  0  0  0  0  0  0  0  0
    2.4954   -3.7812    0.0000 C   0  0  0  0  0  0  0  0  0  0  0  0
    3.2018   -2.4579    0.0000 C   0  0  0  0  0  0  0  0  0  0  0  0
    4.7010   -2.4081    0.0000 Cl  0  0  0  0  0  0  0  0  0  0  0  0
    2.4091   -1.1845    0.0000 C   0  0  0  0  0  0  0  0  0  0  0  0
    0.9099   -1.2343    0.0000 C   0  0  0  0  0  0  0  0  0  0  0  0
   -2.1366   -3.8495    0.0000 C   0  0  0  0  0  0  0  0  0  0  0  0
   -3.5778   -3.4336    0.0000 C   0  0  0  0  0  0  0  0  0  0  0  0
   -4.7614   -4.3551    0.0000 O   0  0  0  0  0  0  0  0  0  0  0  0
    2.2016    1.7470    0.0000 C   0  0  0  0  0  0  0  0  0  0  0  0
    3.5914    1.1827    0.0000 C   0  0  0  0  0  0  0  0  0  0  0  0
    3.7977   -0.3030    0.0000 C   0  0  0  0  0  0  0  0  0  0  0  0
    5.1875   -0.8673    0.0000 C   0  0  0  0  0  0  0  0  0  0  0  0
    6.3711    0.0542    0.0000 C   0  0  0  0  0  0  0  0  0  0  0  0
    6.1648    1.5399    0.0000 C   0  0  0  0  0  0  0  0  0  0  0  0
    4.7750    2.1042    0.0000 C   0  0  0  0  0  0  0  0  0  0  0  0
  1  2  1  0
  2  3  1  0
  3  4  1  0
  4  5  1  0
  5  6  1  0
  6  7  1  0
  7  8  2  0
  7  9  1  0
  9 10  1  0
 10 11  2  0
 11 12  1  0
 12 13  2  0
 13 14  1  0
 14 15  2  0
 13 16  1  0
 16 17  1  0
 17 18  2  0
 18 19  1  0
 19 20  2  0
 20 21  1  0
 20 22  1  0
 22 23  2  0
 16 24  1  0
 24 25  1  0
 25 26  2  0
  2 27  1  0
 27 28  1  0
 28 29  2  0
 29 30  1  0
 30 31  2  0
 31 32  1  0
 32 33  2  0
 15  6  1  0
 23 17  1  0
 33 28  1  0
 15 10  1  0
 25 12  1  0
M  END
>  <Ki>  (315) 
50.0

>  <database>  (315) 
SRSLDB

$$$$

     RDKit          2D

 21 27  0  0  0  0  0  0  0  0999 V2000
    1.0179    3.2685    0.0000 O   0  0  0  0  0  0  0  0  0  0  0  0
    0.8382    1.7793    0.0000 C   0  0  0  0  0  0  0  0  0  0  0  0
    1.9374    0.7586    0.0000 C   0  0  0  0  0  0  0  0  0  0  0  0
    3.2982    0.1276    0.0000 C   0  0  0  0  0  0  0  0  0  0  0  0
    4.7874   -0.0521    0.0000 C   0  0  0  0  0  0  0  0  0  0  0  0
    3.8066   -0.9350    0.0000 C   0  0  0  0  0  0  0  0  0  0  0  0
    3.7663   -2.2539    0.0000 C   0  0  0  0  0  0  0  0  0  0  0  0
    2.6671   -1.2332    0.0000 C   0  0  0  0  0  0  0  0  0  0  0  0
    1.3063   -0.6022    0.0000 C   0  0  0  0  0  0  0  0  0  0  0  0
   -0.1829   -0.4225    0.0000 C   0  0  0  0  0  0  0  0  0  0  0  0
    4.7452   -1.1174    0.0000 C   0  0  0  0  0  0  0  0  0  0  0  0
    4.0574    1.2583    0.0000 C   0  0  0  0  0  0  0  0  0  0  0  0
   -0.4722    1.0494    0.0000 N   0  0  0  0  0  0  0  0  0  0  0  0
   -1.8330    1.6805    0.0000 C   0  0  0  0  0  0  0  0  0  0  0  0
   -3.0599    0.8175    0.0000 C   0  0  0  0  0  0  0  0  0  0  0  0
   -4.4207    1.4486    0.0000 C   0  0  0  0  0  0  0  0  0  0  0  0
   -5.6476    0.5857    0.0000 C   0  0  0  0  0  0  0  0  0  0  0  0
   -5.5137   -0.9083    0.0000 C   0  0  0  0  0  0  0  0  0  0  0  0
   -4.1530   -1.5394    0.0000 C   0  0  0  0  0  0  0  0  0  0  0  0
   -4.0191   -3.0334    0.0000 I   0  0  0  0  0  0  0  0  0  0  0  0
   -2.9260   -0.6765    0.0000 C   0  0  0  0  0  0  0  0  0  0  0  0
  2  1  1  6
  3  2  1  1
  3  4  1  0
  4  5  1  1
  5  6  1  1
  7  6  1  6
  8  7  1  1
  8  9  1  0
  9 10  1  1
 11 10  1  1
 11 12  1  0
 10 13  1  1
 13 14  1  0
 14 15  1  0
 15 16  2  0
 16 17  1  0
 17 18  2  0
 18 19  1  0
 19 20  1  0
 19 21  2  0
 12  2  1  0
 21 15  1  0
 13  2  1  0
  9  3  1  0
  8  4  1  0
 12  5  1  6
 11  7  1  0
M  END
>  <ChemBL_ID>  (316) 
CHEMBL2332503

>  <Ki>  (316) 
54.0

>  <database>  (316) 
SRSLDB

$$$$

     RDKit          2D

 20 26  0  0  0  0  0  0  0  0999 V2000
    0.6197    3.1501    0.0000 O   0  0  0  0  0  0  0  0  0  0  0  0
    0.5586    1.6513    0.0000 C   0  0  0  0  0  0  0  0  0  0  0  0
    2.0029    2.0563    0.0000 C   0  0  0  0  0  0  0  0  0  0  0  0
    4.6404    0.1386    0.0000 C   0  0  0  0  0  0  0  0  0  0  0  0
    5.0455   -1.3057    0.0000 C   0  0  0  0  0  0  0  0  0  0  0  0
    3.7970   -2.1372    0.0000 C   0  0  0  0  0  0  0  0  0  0  0  0
    2.6204   -1.2068    0.0000 C   0  0  0  0  0  0  0  0  0  0  0  0
    3.1417    0.1997    0.0000 C   0  0  0  0  0  0  0  0  0  0  0  0
    1.7352    0.7209    0.0000 C   0  0  0  0  0  0  0  0  0  0  0  0
    1.2139   -0.6856    0.0000 C   0  0  0  0  0  0  0  0  0  0  0  0
   -0.2848   -0.6245    0.0000 C   0  0  0  0  0  0  0  0  0  0  0  0
    4.1303   -0.6747    0.0000 C   0  0  0  0  0  0  0  0  0  0  0  0
   -0.6899    0.8198    0.0000 N   0  0  0  0  0  0  0  0  0  0  0  0
   -2.0964    1.3411    0.0000 C   0  0  0  0  0  0  0  0  0  0  0  0
   -3.2511    0.3836    0.0000 C   0  0  0  0  0  0  0  0  0  0  0  0
   -4.6576    0.9049    0.0000 C   0  0  0  0  0  0  0  0  0  0  0  0
   -5.8123   -0.0526    0.0000 C   0  0  0  0  0  0  0  0  0  0  0  0
   -5.5604   -1.5313    0.0000 C   0  0  0  0  0  0  0  0  0  0  0  0
   -4.1539   -2.0526    0.0000 N   0  0  0  0  0  0  0  0  0  0  0  0
   -2.9992   -1.0951    0.0000 C   0  0  0  0  0  0  0  0  0  0  0  0
  1  2  1  0
  2  3  1  0
  3  4  1  0
  4  5  1  0
  5  6  1  0
  6  7  1  0
  7  8  1  0
  8  9  1  0
  9 10  1  0
 10 11  1  0
 11 12  1  0
 11 13  1  0
 13 14  1  0
 14 15  1  0
 15 16  2  0
 16 17  1  0
 17 18  2  0
 18 19  1  0
 19 20  2  0
  9  2  1  0
 20 15  1  0
 13  2  1  0
 12  3  1  0
  8  4  1  0
 12  6  1  0
 10  7  1  0
M  END
>  <ChemBL_ID>  (317) 
CHEMBL2205833

>  <Ki>  (317) 
3234.0

>  <database>  (317) 
SRSLDB

$$$$

     RDKit          2D

 35 39  0  0  0  0  0  0  0  0999 V2000
  -10.6642    1.5197    0.0000 C   0  0  0  0  0  0  0  0  0  0  0  0
   -9.8967    0.2309    0.0000 O   0  0  0  0  0  0  0  0  0  0  0  0
   -8.3968    0.2512    0.0000 C   0  0  0  0  0  0  0  0  0  0  0  0
   -7.6645    1.5603    0.0000 C   0  0  0  0  0  0  0  0  0  0  0  0
   -6.1646    1.5806    0.0000 C   0  0  0  0  0  0  0  0  0  0  0  0
   -5.3971    0.2918    0.0000 C   0  0  0  0  0  0  0  0  0  0  0  0
   -6.1294   -1.0173    0.0000 C   0  0  0  0  0  0  0  0  0  0  0  0
   -7.6293   -1.0376    0.0000 C   0  0  0  0  0  0  0  0  0  0  0  0
   -8.3617   -2.3466    0.0000 O   0  0  0  0  0  0  0  0  0  0  0  0
   -7.5942   -3.6354    0.0000 C   0  0  0  0  0  0  0  0  0  0  0  0
   -3.8972    0.3121    0.0000 C   0  0  0  0  0  0  0  0  0  0  0  0
   -3.1649    1.6212    0.0000 N   0  0  0  0  0  0  0  0  0  0  0  0
   -1.6650    1.6415    0.0000 C   0  0  0  0  0  0  0  0  0  0  0  0
   -0.8975    0.3527    0.0000 C   0  0  0  0  0  0  0  0  0  0  0  0
   -1.6299   -0.9564    0.0000 O   0  0  0  0  0  0  0  0  0  0  0  0
    0.6024    0.3730    0.0000 N   0  0  0  0  0  0  0  0  0  0  0  0
    1.3699   -0.9158    0.0000 C   0  0  0  0  0  0  0  0  0  0  0  0
    2.8697   -0.8955    0.0000 C   0  0  0  0  0  0  0  0  0  0  0  0
    3.7349    0.3298    0.0000 C   0  0  0  0  0  0  0  0  0  0  0  0
    5.1676   -0.1143    0.0000 N   0  0  0  0  0  0  0  0  0  0  0  0
    6.3691    0.7837    0.0000 C   0  0  0  0  0  0  0  0  0  0  0  0
    7.7476    0.1922    0.0000 C   0  0  0  0  0  0  0  0  0  0  0  0
    8.9491    1.0902    0.0000 C   0  0  0  0  0  0  0  0  0  0  0  0
    8.7721    2.5797    0.0000 C   0  0  0  0  0  0  0  0  0  0  0  0
    9.9736    3.4777    0.0000 F   0  0  0  0  0  0  0  0  0  0  0  0
    7.3937    3.1712    0.0000 C   0  0  0  0  0  0  0  0  0  0  0  0
    6.1922    2.2732    0.0000 C   0  0  0  0  0  0  0  0  0  0  0  0
    5.1879   -1.6142    0.0000 C   0  0  0  0  0  0  0  0  0  0  0  0
    6.3161   -2.6027    0.0000 C   0  0  0  0  0  0  0  0  0  0  0  0
    6.0241   -4.0740    0.0000 C   0  0  0  0  0  0  0  0  0  0  0  0
    4.6040   -4.5568    0.0000 C   0  0  0  0  0  0  0  0  0  0  0  0
    3.4758   -3.5683    0.0000 C   0  0  0  0  0  0  0  0  0  0  0  0
    3.7677   -2.0970    0.0000 C   0  0  0  0  0  0  0  0  0  0  0  0
   -3.9324    2.9099    0.0000 C   0  0  0  0  0  0  0  0  0  0  0  0
   -5.4322    2.8896    0.0000 C   0  0  0  0  0  0  0  0  0  0  0  0
  1  2  1  0
  2  3  1  0
  3  4  2  0
  4  5  1  0
  5  6  2  0
  6  7  1  0
  7  8  2  0
  8  9  1  0
  9 10  1  0
  6 11  1  0
 11 12  1  0
 12 13  1  0
 13 14  1  0
 14 15  2  0
 14 16  1  0
 16 17  1  0
 17 18  1  0
 18 19  2  0
 19 20  1  0
 20 21  1  0
 21 22  2  0
 22 23  1  0
 23 24  2  0
 24 25  1  0
 24 26  1  0
 26 27  2  0
 20 28  1  0
 28 29  2  0
 29 30  1  0
 30 31  2  0
 31 32  1  0
 32 33  2  0
 12 34  1  0
 34 35  1  0
  8  3  1  0
 33 18  1  0
 35  5  1  0
 27 21  1  0
 33 28  1  0
M  END
>  <Ki>  (318) 
1623.0

>  <database>  (318) 
SRSLDB

$$$$

     RDKit          2D

 20 26  0  0  0  0  0  0  0  0999 V2000
    0.6197    3.1501    0.0000 O   0  0  0  0  0  0  0  0  0  0  0  0
    0.5586    1.6513    0.0000 C   0  0  0  0  0  0  0  0  0  0  0  0
    2.0029    2.0563    0.0000 C   0  0  0  0  0  0  0  0  0  0  0  0
    4.6404    0.1386    0.0000 C   0  0  0  0  0  0  0  0  0  0  0  0
    5.0455   -1.3057    0.0000 C   0  0  0  0  0  0  0  0  0  0  0  0
    3.7970   -2.1372    0.0000 C   0  0  0  0  0  0  0  0  0  0  0  0
    2.6204   -1.2068    0.0000 C   0  0  0  0  0  0  0  0  0  0  0  0
    3.1417    0.1997    0.0000 C   0  0  0  0  0  0  0  0  0  0  0  0
    1.7352    0.7209    0.0000 C   0  0  0  0  0  0  0  0  0  0  0  0
    1.2139   -0.6856    0.0000 C   0  0  0  0  0  0  0  0  0  0  0  0
   -0.2848   -0.6245    0.0000 C   0  0  0  0  0  0  0  0  0  0  0  0
    4.1303   -0.6747    0.0000 C   0  0  0  0  0  0  0  0  0  0  0  0
   -0.6899    0.8198    0.0000 N   0  0  0  0  0  0  0  0  0  0  0  0
   -2.0964    1.3411    0.0000 C   0  0  0  0  0  0  0  0  0  0  0  0
   -3.2511    0.3836    0.0000 C   0  0  0  0  0  0  0  0  0  0  0  0
   -4.6576    0.9049    0.0000 C   0  0  0  0  0  0  0  0  0  0  0  0
   -5.8123   -0.0526    0.0000 C   0  0  0  0  0  0  0  0  0  0  0  0
   -5.5604   -1.5313    0.0000 C   0  0  0  0  0  0  0  0  0  0  0  0
   -4.1539   -2.0526    0.0000 C   0  0  0  0  0  0  0  0  0  0  0  0
   -2.9992   -1.0951    0.0000 C   0  0  0  0  0  0  0  0  0  0  0  0
  1  2  1  0
  2  3  1  0
  3  4  1  0
  4  5  1  0
  5  6  1  0
  6  7  1  0
  7  8  1  0
  8  9  1  0
  9 10  1  0
 10 11  1  0
 11 12  1  0
 11 13  1  0
 13 14  1  0
 14 15  1  0
 15 16  1  0
 16 17  1  0
 17 18  1  0
 18 19  1  0
 19 20  1  0
  9  2  1  0
 20 15  1  0
 13  2  1  0
 12  3  1  0
  8  4  1  0
 12  6  1  0
 10  7  1  0
M  END
>  <ChemBL_ID>  (319) 
CHEMBL2205831

>  <Ki>  (319) 
2.2

>  <database>  (319) 
SRSLDB

$$$$

     RDKit          2D

 26 29  0  0  0  0  0  0  0  0999 V2000
   -9.7398    1.0946    0.0000 C   0  0  0  0  0  0  0  0  0  0  0  0
   -8.9692   -0.1923    0.0000 O   0  0  0  0  0  0  0  0  0  0  0  0
   -7.4694   -0.1685    0.0000 C   0  0  0  0  0  0  0  0  0  0  0  0
   -6.7401    1.1423    0.0000 C   0  0  0  0  0  0  0  0  0  0  0  0
   -5.2403    1.1661    0.0000 C   0  0  0  0  0  0  0  0  0  0  0  0
   -4.4698   -0.1209    0.0000 C   0  0  0  0  0  0  0  0  0  0  0  0
   -2.9700   -0.0971    0.0000 C   0  0  0  0  0  0  0  0  0  0  0  0
   -2.1995   -1.3841    0.0000 C   0  0  0  0  0  0  0  0  0  0  0  0
   -0.6997   -1.3603    0.0000 C   0  0  0  0  0  0  0  0  0  0  0  0
    0.0296   -0.0495    0.0000 C   0  0  0  0  0  0  0  0  0  0  0  0
    1.5294   -0.0257    0.0000 N   0  0  0  0  0  0  0  0  0  0  0  0
    2.3000   -1.3127    0.0000 C   0  0  0  0  0  0  0  0  0  0  0  0
    3.7998   -1.2889    0.0000 C   0  0  0  0  0  0  0  0  0  0  0  0
    4.5291    0.0219    0.0000 N   0  0  0  0  0  0  0  0  0  0  0  0
    6.0289    0.0457    0.0000 C   0  0  0  0  0  0  0  0  0  0  0  0
    6.7994   -1.2413    0.0000 C   0  0  0  0  0  0  0  0  0  0  0  0
    8.2992   -1.2174    0.0000 C   0  0  0  0  0  0  0  0  0  0  0  0
    9.0285    0.0933    0.0000 C   0  0  0  0  0  0  0  0  0  0  0  0
    8.2580    1.3803    0.0000 C   0  0  0  0  0  0  0  0  0  0  0  0
    6.7582    1.3565    0.0000 N   0  0  0  0  0  0  0  0  0  0  0  0
    3.7585    1.3089    0.0000 C   0  0  0  0  0  0  0  0  0  0  0  0
    2.2587    1.2851    0.0000 C   0  0  0  0  0  0  0  0  0  0  0  0
   -0.7409    1.2375    0.0000 C   0  0  0  0  0  0  0  0  0  0  0  0
   -2.2407    1.2137    0.0000 C   0  0  0  0  0  0  0  0  0  0  0  0
   -5.1991   -1.4317    0.0000 C   0  0  0  0  0  0  0  0  0  0  0  0
   -6.6989   -1.4555    0.0000 C   0  0  0  0  0  0  0  0  0  0  0  0
  1  2  1  0
  2  3  1  0
  3  4  2  0
  4  5  1  0
  5  6  2  0
  7  6  1  6
  7  8  1  0
  8  9  1  0
  9 10  1  0
 10 11  1  6
 11 12  1  0
 12 13  1  0
 13 14  1  0
 14 15  1  0
 15 16  2  0
 16 17  1  0
 17 18  2  0
 18 19  1  0
 19 20  2  0
 14 21  1  0
 21 22  1  0
 10 23  1  0
 23 24  1  0
  6 25  1  0
 25 26  2  0
 26  3  1  0
 24  7  1  0
 22 11  1  0
 20 15  1  0
M  END
>  <ChemBL_ID>  (320) 
CHEMBL485929

>  <Ki>  (320) 
63.8

>  <database>  (320) 
SRSLDB

$$$$

     RDKit          2D

 29 32  0  0  0  0  0  0  0  0999 V2000
   -5.8148   -3.1030    0.0000 C   0  0  0  0  0  0  0  0  0  0  0  0
   -4.4382   -2.5071    0.0000 O   0  0  0  0  0  0  0  0  0  0  0  0
   -4.2660   -1.0170    0.0000 C   0  0  0  0  0  0  0  0  0  0  0  0
   -5.4704   -0.1229    0.0000 C   0  0  0  0  0  0  0  0  0  0  0  0
   -5.2982    1.3672    0.0000 C   0  0  0  0  0  0  0  0  0  0  0  0
   -3.9217    1.9631    0.0000 C   0  0  0  0  0  0  0  0  0  0  0  0
   -3.7495    3.4532    0.0000 C   0  0  0  0  0  0  0  0  0  0  0  0
   -2.7173    1.0690    0.0000 C   0  0  0  0  0  0  0  0  0  0  0  0
   -2.8895   -0.4211    0.0000 C   0  0  0  0  0  0  0  0  0  0  0  0
   -1.6851   -1.3153    0.0000 N   0  0  0  0  0  0  0  0  0  0  0  0
   -0.3086   -0.7193    0.0000 C   0  0  0  0  0  0  0  0  0  0  0  0
   -0.1364    0.7708    0.0000 O   0  0  0  0  0  0  0  0  0  0  0  0
    0.8958   -1.6135    0.0000 O   0  0  0  0  0  0  0  0  0  0  0  0
    2.2723   -1.0176    0.0000 C   0  0  0  0  0  0  0  0  0  0  0  0
    3.4767   -1.9117    0.0000 C   0  0  0  0  0  0  0  0  0  0  0  0
    4.8532   -1.3158    0.0000 C   0  0  0  0  0  0  0  0  0  0  0  0
    6.2298   -0.7199    0.0000 C   0  0  0  0  0  0  0  0  0  0  0  0
    6.4019    0.7702    0.0000 C   0  0  0  0  0  0  0  0  0  0  0  0
    5.1976    1.6644    0.0000 C   0  0  0  0  0  0  0  0  0  0  0  0
    3.8210    1.0685    0.0000 C   0  0  0  0  0  0  0  0  0  0  0  0
    2.4445    0.4725    0.0000 C   0  0  0  0  0  0  0  0  0  0  0  0
    3.6489   -0.4216    0.0000 N   0  0  0  0  0  0  0  0  0  0  0  0
    2.2723   -1.0176    0.0000 C   0  0  0  0  0  0  0  0  0  0  0  0
    1.0680   -0.1234    0.0000 C   0  0  0  0  0  0  0  0  0  0  0  0
    1.2401    1.3667    0.0000 C   0  0  0  0  0  0  0  0  0  0  0  0
    0.0358    2.2608    0.0000 C   0  0  0  0  0  0  0  0  0  0  0  0
   -1.3408    1.6649    0.0000 N   0  0  0  0  0  0  0  0  0  0  0  0
   -1.5129    0.1748    0.0000 C   0  0  0  0  0  0  0  0  0  0  0  0
   -0.3086   -0.7193    0.0000 C   0  0  0  0  0  0  0  0  0  0  0  0
  1  2  1  0
  2  3  1  0
  3  4  2  0
  4  5  1  0
  5  6  2  0
  6  7  1  0
  6  8  1  0
  8  9  2  0
  9 10  1  0
 10 11  1  0
 11 12  2  0
 11 13  1  0
 13 14  1  0
 14 15  1  0
 15 16  1  0
 16 17  1  0
 17 18  1  0
 18 19  1  0
 19 20  1  0
 20 21  1  0
 20 22  1  0
 22 23  1  0
 23 24  1  0
 24 25  2  0
 25 26  1  0
 26 27  2  0
 27 28  1  0
 28 29  2  0
  9  3  1  0
 21 14  1  0
 29 24  1  0
 22 16  1  0
M  END
>  <ChemBL_ID>  (321) 
CHEMBL480625

>  <Ki>  (321) 
521.6

>  <database>  (321) 
SRSLDB

$$$$

     RDKit          2D

 26 29  0  0  0  0  0  0  0  0999 V2000
    7.7960   -2.4991    0.0000 C   0  0  0  0  0  0  0  0  0  0  0  0
    6.3702   -2.9649    0.0000 C   0  0  0  0  0  0  0  0  0  0  0  0
    5.2539   -1.9630    0.0000 N   0  0  0  0  0  0  0  0  0  0  0  0
    5.5634   -0.4953    0.0000 C   0  0  0  0  0  0  0  0  0  0  0  0
    6.9893   -0.0295    0.0000 C   0  0  0  0  0  0  0  0  0  0  0  0
    8.1056   -1.0314    0.0000 C   0  0  0  0  0  0  0  0  0  0  0  0
    7.2988    1.4382    0.0000 C   0  0  0  0  0  0  0  0  0  0  0  0
    6.1825    2.4402    0.0000 C   0  0  0  0  0  0  0  0  0  0  0  0
    4.7567    1.9744    0.0000 C   0  0  0  0  0  0  0  0  0  0  0  0
    4.4471    0.5067    0.0000 N   0  0  0  0  0  0  0  0  0  0  0  0
    3.0213    0.0409    0.0000 C   0  0  0  0  0  0  0  0  0  0  0  0
    1.9050    1.0428    0.0000 C   0  0  0  0  0  0  0  0  0  0  0  0
    0.4791    0.5770    0.0000 C   0  0  0  0  0  0  0  0  0  0  0  0
   -0.6372    1.5789    0.0000 C   0  0  0  0  0  0  0  0  0  0  0  0
   -2.0630    1.1132    0.0000 N   0  0  0  0  0  0  0  0  0  0  0  0
   -3.1793    2.1151    0.0000 C   0  0  0  0  0  0  0  0  0  0  0  0
   -4.6052    1.6493    0.0000 C   0  0  0  0  0  0  0  0  0  0  0  0
   -4.9147    0.1816    0.0000 N   0  0  0  0  0  0  0  0  0  0  0  0
   -6.3406   -0.2842    0.0000 C   0  0  0  0  0  0  0  0  0  0  0  0
   -7.4569    0.7177    0.0000 C   0  0  0  0  0  0  0  0  0  0  0  0
   -8.8827    0.2519    0.0000 C   0  0  0  0  0  0  0  0  0  0  0  0
   -9.1923   -1.2158    0.0000 C   0  0  0  0  0  0  0  0  0  0  0  0
   -8.0760   -2.2177    0.0000 C   0  0  0  0  0  0  0  0  0  0  0  0
   -6.6501   -1.7519    0.0000 C   0  0  0  0  0  0  0  0  0  0  0  0
   -3.7984   -0.8203    0.0000 C   0  0  0  0  0  0  0  0  0  0  0  0
   -2.3726   -0.3546    0.0000 C   0  0  0  0  0  0  0  0  0  0  0  0
  1  2  2  0
  2  3  1  0
  3  4  2  0
  4  5  1  0
  5  6  2  0
  5  7  1  0
  7  8  1  0
  8  9  1  0
  9 10  1  0
 10 11  1  0
 11 12  1  0
 12 13  1  0
 13 14  1  0
 14 15  1  0
 15 16  1  0
 16 17  1  0
 17 18  1  0
 18 19  1  0
 19 20  1  0
 20 21  1  0
 21 22  1  0
 22 23  1  0
 23 24  1  0
 18 25  1  0
 25 26  1  0
  6  1  1  0
 26 15  1  0
 10  4  1  0
 24 19  1  0
M  END
>  <Ki>  (322) 
1.64

>  <database>  (322) 
SRSLDB

$$$$

     RDKit          2D

 27 30  0  0  0  0  0  0  0  0999 V2000
    9.2345   -3.2812    0.0000 C   0  0  0  0  0  0  0  0  0  0  0  0
    7.8333   -2.7457    0.0000 C   0  0  0  0  0  0  0  0  0  0  0  0
    7.5965   -1.2645    0.0000 C   0  0  0  0  0  0  0  0  0  0  0  0
    6.1953   -0.7290    0.0000 C   0  0  0  0  0  0  0  0  0  0  0  0
    5.0310   -1.6747    0.0000 C   0  0  0  0  0  0  0  0  0  0  0  0
    3.6299   -1.1392    0.0000 C   0  0  0  0  0  0  0  0  0  0  0  0
    3.3930    0.3420    0.0000 C   0  0  0  0  0  0  0  0  0  0  0  0
    4.5574    1.2877    0.0000 C   0  0  0  0  0  0  0  0  0  0  0  0
    5.9585    0.7522    0.0000 C   0  0  0  0  0  0  0  0  0  0  0  0
    4.0178    2.6873    0.0000 S   0  0  0  0  0  0  0  0  0  0  0  0
    2.5199    2.6065    0.0000 C   0  0  0  0  0  0  0  0  0  0  0  0
    1.5742    3.7709    0.0000 O   0  0  0  0  0  0  0  0  0  0  0  0
    2.1338    1.1571    0.0000 N   0  0  0  0  0  0  0  0  0  0  0  0
    0.7342    0.6175    0.0000 C   0  0  0  0  0  0  0  0  0  0  0  0
   -0.4329    1.5597    0.0000 C   0  0  0  0  0  0  0  0  0  0  0  0
   -1.8324    1.0201    0.0000 N   0  0  0  0  0  0  0  0  0  0  0  0
   -2.9995    1.9624    0.0000 C   0  0  0  0  0  0  0  0  0  0  0  0
   -4.3991    1.4228    0.0000 C   0  0  0  0  0  0  0  0  0  0  0  0
   -4.6316   -0.0591    0.0000 N   0  0  0  0  0  0  0  0  0  0  0  0
   -6.0312   -0.5987    0.0000 C   0  0  0  0  0  0  0  0  0  0  0  0
   -7.1983    0.3436    0.0000 C   0  0  0  0  0  0  0  0  0  0  0  0
   -8.5979   -0.1960    0.0000 C   0  0  0  0  0  0  0  0  0  0  0  0
   -8.8303   -1.6779    0.0000 C   0  0  0  0  0  0  0  0  0  0  0  0
   -7.6632   -2.6202    0.0000 C   0  0  0  0  0  0  0  0  0  0  0  0
   -6.2636   -2.0806    0.0000 C   0  0  0  0  0  0  0  0  0  0  0  0
   -3.4645   -1.0013    0.0000 C   0  0  0  0  0  0  0  0  0  0  0  0
   -2.0649   -0.4617    0.0000 C   0  0  0  0  0  0  0  0  0  0  0  0
  1  2  1  0
  2  3  1  0
  3  4  1  0
  4  5  2  0
  5  6  1  0
  6  7  2  0
  7  8  1  0
  8  9  2  0
  8 10  1  0
 10 11  1  0
 11 12  2  0
 11 13  1  0
 13 14  1  0
 14 15  1  0
 15 16  1  0
 16 17  1  0
 17 18  1  0
 18 19  1  0
 19 20  1  0
 20 21  1  0
 21 22  1  0
 22 23  1  0
 23 24  1  0
 24 25  1  0
 19 26  1  0
 26 27  1  0
  9  4  1  0
 27 16  1  0
 13  7  1  0
 25 20  1  0
M  END
>  <Ki>  (323) 
4.85

>  <database>  (323) 
SRSLDB

$$$$

     RDKit          2D

 29 32  0  0  0  0  0  0  0  0999 V2000
   -9.5782    0.9662    0.0000 C   0  0  0  0  0  0  0  0  0  0  0  0
   -8.3652    0.0837    0.0000 O   0  0  0  0  0  0  0  0  0  0  0  0
   -6.9945    0.6929    0.0000 C   0  0  0  0  0  0  0  0  0  0  0  0
   -6.8367    2.1846    0.0000 C   0  0  0  0  0  0  0  0  0  0  0  0
   -5.4660    2.7938    0.0000 C   0  0  0  0  0  0  0  0  0  0  0  0
   -4.2531    1.9114    0.0000 C   0  0  0  0  0  0  0  0  0  0  0  0
   -4.4108    0.4197    0.0000 C   0  0  0  0  0  0  0  0  0  0  0  0
   -5.7815   -0.1895    0.0000 C   0  0  0  0  0  0  0  0  0  0  0  0
   -5.9393   -1.6812    0.0000 C   0  0  0  0  0  0  0  0  0  0  0  0
   -4.7263   -2.5637    0.0000 C   0  0  0  0  0  0  0  0  0  0  0  0
   -3.3556   -1.9544    0.0000 C   0  0  0  0  0  0  0  0  0  0  0  0
   -3.1979   -0.4628    0.0000 C   0  0  0  0  0  0  0  0  0  0  0  0
   -1.8272    0.1465    0.0000 C   0  0  0  0  0  0  0  0  0  0  0  0
   -0.6142   -0.7360    0.0000 C   0  0  0  0  0  0  0  0  0  0  0  0
    0.7565   -0.1268    0.0000 C   0  0  0  0  0  0  0  0  0  0  0  0
    1.9695   -1.0093    0.0000 N   0  0  0  0  0  4  0  0  0  0  0  0
    0.8898   -2.0505    0.0000 C   0  0  0  0  0  0  0  0  0  0  0  0
    2.6279    0.3385    0.0000 C   0  0  0  0  0  0  0  0  0  0  0  0
    4.1243    0.4422    0.0000 C   0  0  0  0  0  0  0  0  0  0  0  0
    4.9623   -0.8019    0.0000 N   0  0  0  0  0  4  0  0  0  0  0  0
    6.1752   -1.6844    0.0000 C   0  0  0  0  0  0  0  0  0  0  0  0
    6.0420    0.2394    0.0000 C   0  0  0  0  0  0  0  0  0  0  0  0
    7.4836   -0.1750    0.0000 C   0  0  0  0  0  0  0  0  0  0  0  0
    8.5633    0.8663    0.0000 C   0  0  0  0  0  0  0  0  0  0  0  0
    8.2013    2.3219    0.0000 C   0  0  0  0  0  0  0  0  0  0  0  0
    6.7597    2.7363    0.0000 C   0  0  0  0  0  0  0  0  0  0  0  0
    5.6800    1.6950    0.0000 C   0  0  0  0  0  0  0  0  0  0  0  0
    4.3039   -2.1497    0.0000 C   0  0  0  0  0  0  0  0  0  0  0  0
    2.8074   -2.2534    0.0000 C   0  0  0  0  0  0  0  0  0  0  0  0
  1  2  1  0
  2  3  1  0
  3  4  2  0
  4  5  1  0
  5  6  2  0
  6  7  1  0
  7  8  2  0
  8  9  1  0
  9 10  1  0
 10 11  1  0
 11 12  1  0
 12 13  1  0
 13 14  1  0
 14 15  1  0
 15 16  1  0
 16 17  1  0
 16 18  1  0
 18 19  1  0
 19 20  1  0
 20 21  1  0
 20 22  1  0
 22 23  1  0
 23 24  1  0
 24 25  1  0
 25 26  1  0
 26 27  1  0
 20 28  1  0
 28 29  1  0
  8  3  1  0
 29 16  1  0
 12  7  1  0
 27 22  1  0
M  CHG  2  16   1  20   1
M  END
>  <ChemBL_ID>  (324) 
CHEMBL1197469

>  <Ki>  (324) 
1710.0

>  <database>  (324) 
SRSLDB

$$$$

     RDKit          2D

 20 26  0  0  0  0  0  0  0  0999 V2000
    0.6197    3.1501    0.0000 O   0  0  0  0  0  0  0  0  0  0  0  0
    0.5586    1.6513    0.0000 C   0  0  0  0  0  0  0  0  0  0  0  0
    2.0029    2.0563    0.0000 C   0  0  0  0  0  0  0  0  0  0  0  0
    4.6404    0.1386    0.0000 C   0  0  0  0  0  0  0  0  0  0  0  0
    5.0455   -1.3057    0.0000 C   0  0  0  0  0  0  0  0  0  0  0  0
    3.7970   -2.1372    0.0000 C   0  0  0  0  0  0  0  0  0  0  0  0
    2.6204   -1.2068    0.0000 C   0  0  0  0  0  0  0  0  0  0  0  0
    3.1417    0.1997    0.0000 C   0  0  0  0  0  0  0  0  0  0  0  0
    1.7352    0.7209    0.0000 C   0  0  0  0  0  0  0  0  0  0  0  0
    1.2139   -0.6856    0.0000 C   0  0  0  0  0  0  0  0  0  0  0  0
   -0.2848   -0.6245    0.0000 C   0  0  0  0  0  0  0  0  0  0  0  0
    4.1303   -0.6747    0.0000 C   0  0  0  0  0  0  0  0  0  0  0  0
   -0.6899    0.8198    0.0000 N   0  0  0  0  0  0  0  0  0  0  0  0
   -2.0964    1.3411    0.0000 C   0  0  0  0  0  0  0  0  0  0  0  0
   -3.2511    0.3836    0.0000 C   0  0  0  0  0  0  0  0  0  0  0  0
   -4.6576    0.9049    0.0000 C   0  0  0  0  0  0  0  0  0  0  0  0
   -5.8123   -0.0526    0.0000 C   0  0  0  0  0  0  0  0  0  0  0  0
   -5.5604   -1.5313    0.0000 N   0  0  0  0  0  0  0  0  0  0  0  0
   -4.1539   -2.0526    0.0000 C   0  0  0  0  0  0  0  0  0  0  0  0
   -2.9992   -1.0951    0.0000 C   0  0  0  0  0  0  0  0  0  0  0  0
  1  2  1  0
  2  3  1  0
  3  4  1  0
  4  5  1  0
  5  6  1  0
  6  7  1  0
  7  8  1  0
  8  9  1  0
  9 10  1  0
 10 11  1  0
 11 12  1  0
 11 13  1  0
 13 14  1  0
 14 15  1  0
 15 16  2  0
 16 17  1  0
 17 18  2  0
 18 19  1  0
 19 20  2  0
  9  2  1  0
 20 15  1  0
 13  2  1  0
 12  3  1  0
  8  4  1  0
 12  6  1  0
 10  7  1  0
M  END
>  <ChemBL_ID>  (325) 
CHEMBL2205834

>  <Ki>  (325) 
514.0

>  <database>  (325) 
SRSLDB

$$$$

     RDKit          2D

 30 33  0  0  0  0  0  0  0  0999 V2000
   -9.1466    0.4879    0.0000 C   0  0  0  0  0  0  0  0  0  0  0  0
   -8.1700   -0.6507    0.0000 O   0  0  0  0  0  0  0  0  0  0  0  0
   -6.6957   -0.3743    0.0000 C   0  0  0  0  0  0  0  0  0  0  0  0
   -6.1979    1.0407    0.0000 C   0  0  0  0  0  0  0  0  0  0  0  0
   -4.7236    1.3172    0.0000 C   0  0  0  0  0  0  0  0  0  0  0  0
   -3.7471    0.1786    0.0000 C   0  0  0  0  0  0  0  0  0  0  0  0
   -4.2449   -1.2364    0.0000 C   0  0  0  0  0  0  0  0  0  0  0  0
   -5.7192   -1.5128    0.0000 C   0  0  0  0  0  0  0  0  0  0  0  0
   -6.2169   -2.9278    0.0000 O   0  0  0  0  0  0  0  0  0  0  0  0
   -5.2404   -4.0664    0.0000 C   0  0  0  0  0  0  0  0  0  0  0  0
   -2.2728    0.4550    0.0000 C   0  0  0  0  0  0  0  0  0  0  0  0
   -1.7750    1.8700    0.0000 N   0  0  0  0  0  0  0  0  0  0  0  0
   -0.3007    2.1464    0.0000 C   0  0  0  0  0  0  0  0  0  0  0  0
    0.6759    1.0078    0.0000 C   0  0  0  0  0  0  0  0  0  0  0  0
    0.1781   -0.4072    0.0000 O   0  0  0  0  0  0  0  0  0  0  0  0
    2.1502    1.2842    0.0000 N   0  0  0  0  0  0  0  0  0  0  0  0
    3.1267    0.1457    0.0000 C   0  0  0  0  0  0  0  0  0  0  0  0
    2.6289   -1.2693    0.0000 C   0  0  0  0  0  0  0  0  0  0  0  0
    3.6055   -2.4079    0.0000 C   0  0  0  0  0  0  0  0  0  0  0  0
    5.0798   -2.1315    0.0000 C   0  0  0  0  0  0  0  0  0  0  0  0
    5.5776   -0.7165    0.0000 C   0  0  0  0  0  0  0  0  0  0  0  0
    7.0519   -0.4401    0.0000 C   0  0  0  0  0  0  0  0  0  0  0  0
    8.0284   -1.5787    0.0000 O   0  0  0  0  0  0  0  0  0  0  0  0
    9.5027   -1.3022    0.0000 C   0  0  0  0  0  0  0  0  0  0  0  0
    7.5496    0.9749    0.0000 C   0  0  0  0  0  0  0  0  0  0  0  0
    6.5731    2.1135    0.0000 C   0  0  0  0  0  0  0  0  0  0  0  0
    5.0988    1.8371    0.0000 C   0  0  0  0  0  0  0  0  0  0  0  0
    4.6010    0.4221    0.0000 C   0  0  0  0  0  0  0  0  0  0  0  0
   -2.7515    3.0086    0.0000 C   0  0  0  0  0  0  0  0  0  0  0  0
   -4.2259    2.7322    0.0000 C   0  0  0  0  0  0  0  0  0  0  0  0
  1  2  1  0
  2  3  1  0
  3  4  2  0
  4  5  1  0
  5  6  2  0
  6  7  1  0
  7  8  2  0
  8  9  1  0
  9 10  1  0
  6 11  1  0
 11 12  1  0
 12 13  1  0
 13 14  1  0
 14 15  2  0
 14 16  1  0
 17 16  1  6
 17 18  1  0
 18 19  1  0
 19 20  1  0
 20 21  1  0
 21 22  2  0
 22 23  1  0
 23 24  1  0
 22 25  1  0
 25 26  2  0
 26 27  1  0
 27 28  2  0
 12 29  1  0
 29 30  1  0
  8  3  1  0
 28 17  1  0
 30  5  1  0
 28 21  1  0
M  END
>  <Ki>  (326) 
1761.0

>  <database>  (326) 
SRSLDB

$$$$

     RDKit          2D

 38 41  0  0  0  0  0  0  0  0999 V2000
   -3.3587   -2.9032    0.0000 C   0  0  0  0  0  0  0  0  0  0  0  0
   -1.9769   -2.3195    0.0000 O   0  0  0  0  0  0  0  0  0  0  0  0
   -1.7915   -0.8310    0.0000 C   0  0  0  0  0  0  0  0  0  0  0  0
   -2.9879    0.0738    0.0000 C   0  0  0  0  0  0  0  0  0  0  0  0
   -2.8025    1.5623    0.0000 C   0  0  0  0  0  0  0  0  0  0  0  0
   -1.4207    2.1460    0.0000 C   0  0  0  0  0  0  0  0  0  0  0  0
   -1.2353    3.6345    0.0000 C   0  0  0  0  0  0  0  0  0  0  0  0
   -0.2244    1.2412    0.0000 C   0  0  0  0  0  0  0  0  0  0  0  0
   -0.4097   -0.2473    0.0000 C   0  0  0  0  0  0  0  0  0  0  0  0
    0.7866   -1.1521    0.0000 N   0  0  0  0  0  0  0  0  0  0  0  0
    2.1684   -0.5684    0.0000 C   0  0  0  0  0  0  0  0  0  0  0  0
    2.3538    0.9201    0.0000 O   0  0  0  0  0  0  0  0  0  0  0  0
    3.3648   -1.4732    0.0000 O   0  0  0  0  0  0  0  0  0  0  0  0
    4.7466   -0.8895    0.0000 C   0  0  0  0  0  0  0  0  0  0  0  0
    5.9429   -1.7943    0.0000 C   0  0  0  0  0  0  0  0  0  0  0  0
    7.3247   -1.2106    0.0000 C   0  0  0  0  0  0  0  0  0  0  0  0
    8.7065   -0.6269    0.0000 C   0  0  0  0  0  0  0  0  0  0  0  0
    8.8919    0.8616    0.0000 C   0  0  0  0  0  0  0  0  0  0  0  0
    7.6955    1.7664    0.0000 C   0  0  0  0  0  0  0  0  0  0  0  0
    6.3137    1.1827    0.0000 C   0  0  0  0  0  0  0  0  0  0  0  0
    4.9320    0.5990    0.0000 C   0  0  0  0  0  0  0  0  0  0  0  0
    6.1283   -0.3058    0.0000 N   0  0  0  0  0  0  0  0  0  0  0  0
    4.7466   -0.8895    0.0000 C   0  0  0  0  0  0  0  0  0  0  0  0
    3.5502    0.0153    0.0000 C   0  0  0  0  0  0  0  0  0  0  0  0
    2.1684   -0.5684    0.0000 C   0  0  0  0  0  0  0  0  0  0  0  0
    0.9720    0.3364    0.0000 C   0  0  0  0  0  0  0  0  0  0  0  0
   -0.4097   -0.2473    0.0000 C   0  0  0  0  0  0  0  0  0  0  0  0
   -1.6061    0.6575    0.0000 C   0  0  0  0  0  0  0  0  0  0  0  0
   -2.9879    0.0738    0.0000 N   0  0  0  0  0  0  0  0  0  0  0  0
   -4.1843    0.9786    0.0000 C   0  0  0  0  0  0  0  0  0  0  0  0
   -3.9989    2.4671    0.0000 O   0  0  0  0  0  0  0  0  0  0  0  0
   -5.5661    0.3949    0.0000 C   0  0  0  0  0  0  0  0  0  0  0  0
   -6.7624    1.2997    0.0000 C   0  0  0  0  0  0  0  0  0  0  0  0
   -8.1442    0.7160    0.0000 C   0  0  0  0  0  0  0  0  0  0  0  0
   -8.3296   -0.7725    0.0000 C   0  0  0  0  0  0  0  0  0  0  0  0
   -9.7114   -1.3562    0.0000 Br  0  0  0  0  0  0  0  0  0  0  0  0
   -7.1332   -1.6773    0.0000 C   0  0  0  0  0  0  0  0  0  0  0  0
   -5.7514   -1.0936    0.0000 C   0  0  0  0  0  0  0  0  0  0  0  0
  1  2  1  0
  2  3  1  0
  3  4  2  0
  4  5  1  0
  5  6  2  0
  6  7  1  0
  6  8  1  0
  8  9  2  0
  9 10  1  0
 10 11  1  0
 11 12  2  0
 11 13  1  0
 13 14  1  0
 14 15  1  0
 15 16  1  0
 16 17  1  0
 17 18  1  0
 18 19  1  0
 19 20  1  0
 20 21  1  0
 20 22  1  0
 22 23  1  0
 23 24  1  0
 24 25  1  0
 25 26  1  0
 26 27  1  0
 27 28  1  0
 28 29  1  0
 29 30  1  0
 30 31  2  0
 30 32  1  0
 32 33  2  0
 33 34  1  0
 34 35  2  0
 35 36  1  0
 35 37  1  0
 37 38  2  0
  9  3  1  0
 21 14  1  0
 38 32  1  0
 22 16  1  0
M  END
>  <Ki>  (327) 
719.0

>  <database>  (327) 
SRSLDB

$$$$

     RDKit          2D

 23 26  0  0  0  0  0  0  0  0999 V2000
    1.5587   -4.0251    0.0000 O   0  0  0  0  0  0  0  0  0  0  0  0
    0.7693   -2.7496    0.0000 C   0  0  0  0  0  0  0  0  0  0  0  0
   -0.7300   -2.7956    0.0000 C   0  0  0  0  0  0  0  0  0  0  0  0
   -1.5194   -1.5201    0.0000 C   0  0  0  0  0  0  0  0  0  0  0  0
   -0.6995   -1.4445    0.0000 C   0  0  0  0  0  0  0  0  0  0  0  0
    0.6562   -1.4030    0.0000 N   0  0  0  0  0  0  0  0  0  0  0  0
    1.3997    1.1686    0.0000 C   0  0  0  0  0  0  0  0  0  0  0  0
    2.8990    1.2145    0.0000 C   0  0  0  0  0  0  0  0  0  0  0  0
    3.6884   -0.0610    0.0000 C   0  0  0  0  0  0  0  0  0  0  0  0
    5.1877   -0.0150    0.0000 C   0  0  0  0  0  0  0  0  0  0  0  0
    5.8976    1.3063    0.0000 C   0  0  0  0  0  0  0  0  0  0  0  0
    5.1081    2.5818    0.0000 C   0  0  0  0  0  0  0  0  0  0  0  0
    3.6089    2.5359    0.0000 C   0  0  0  0  0  0  0  0  0  0  0  0
    1.4792   -1.4283    0.0000 C   0  0  0  0  0  0  0  0  0  0  0  0
    0.6898   -0.1528    0.0000 C   0  0  0  0  0  0  0  0  0  0  0  0
   -0.8095   -0.1987    0.0000 N   0  0  0  0  0  0  0  0  0  0  0  0
   -1.5989    1.0768    0.0000 C   0  0  0  0  0  0  0  0  0  0  0  0
   -3.0982    1.0309    0.0000 C   0  0  0  0  0  0  0  0  0  0  0  0
   -3.8876    2.3063    0.0000 C   0  0  0  0  0  0  0  0  0  0  0  0
   -5.3869    2.2604    0.0000 C   0  0  0  0  0  0  0  0  0  0  0  0
   -6.0968    0.9390    0.0000 C   0  0  0  0  0  0  0  0  0  0  0  0
   -5.3074   -0.3364    0.0000 C   0  0  0  0  0  0  0  0  0  0  0  0
   -3.8081   -0.2905    0.0000 C   0  0  0  0  0  0  0  0  0  0  0  0
  2  1  1  1
  2  3  1  0
  4  3  1  6
  4  5  1  0
  5  6  1  0
  6  7  1  0
  7  8  1  0
  8  9  1  0
  9 10  1  0
 10 11  1  0
 11 12  1  0
 12 13  1  0
  6 14  1  0
 14 15  1  6
 15 16  1  0
 16 17  1  0
 17 18  1  0
 18 19  2  0
 19 20  1  0
 20 21  2  0
 21 22  1  0
 22 23  2  0
 14  2  1  0
 23 18  1  0
 16  4  1  0
 13  8  1  0
M  END
>  <Compound_Key>  (328) 
39

>  <Ki>  (328) 
60.0

>  <database>  (328) 
NewLiterature

>  <Document_ChEMBL_ID>  (328) 
10.1021/acs.jmedchem.0c02265

$$$$

     RDKit          2D

 29 31  0  0  0  0  0  0  0  0999 V2000
   -9.9043   -1.8434    0.0000 C   0  0  0  0  0  0  0  0  0  0  0  0
   -8.4111   -1.7012    0.0000 O   0  0  0  0  0  0  0  0  0  0  0  0
   -7.7876   -0.3369    0.0000 C   0  0  0  0  0  0  0  0  0  0  0  0
   -8.6574    0.8852    0.0000 C   0  0  0  0  0  0  0  0  0  0  0  0
   -8.0340    2.2495    0.0000 C   0  0  0  0  0  0  0  0  0  0  0  0
   -6.5408    2.3917    0.0000 C   0  0  0  0  0  0  0  0  0  0  0  0
   -5.6710    1.1697    0.0000 C   0  0  0  0  0  0  0  0  0  0  0  0
   -4.1777    1.3119    0.0000 C   0  0  0  0  0  0  0  0  0  0  0  0
   -3.5543    2.6762    0.0000 O   0  0  0  0  0  0  0  0  0  0  0  0
   -3.3079    0.0899    0.0000 N   0  0  0  0  0  0  0  0  0  0  0  0
   -1.8147    0.2321    0.0000 C   0  0  0  0  0  0  0  0  0  0  0  0
   -0.9449   -0.9900    0.0000 C   0  0  0  0  0  0  0  0  0  0  0  0
    0.5484   -0.8477    0.0000 C   0  0  0  0  0  0  0  0  0  0  0  0
    1.4182   -2.0698    0.0000 C   0  0  0  0  0  0  0  0  0  0  0  0
    2.9114   -1.9275    0.0000 N   0  0  0  0  0  0  0  0  0  0  0  0
    3.7812   -3.1496    0.0000 C   0  0  0  0  0  0  0  0  0  0  0  0
    5.2745   -3.0073    0.0000 C   0  0  0  0  0  0  0  0  0  0  0  0
    5.8979   -1.6430    0.0000 C   0  0  0  0  0  0  0  0  0  0  0  0
    7.3911   -1.5008    0.0000 C   0  0  0  0  0  0  0  0  0  0  0  0
    8.0146   -0.1365    0.0000 C   0  0  0  0  0  0  0  0  0  0  0  0
    7.1448    1.0856    0.0000 C   0  0  0  0  0  0  0  0  0  0  0  0
    7.7682    2.4499    0.0000 N   0  0  0  0  0  4  0  0  0  0  0  0
    6.8984    3.6720    0.0000 O   0  0  0  0  0  0  0  0  0  0  0  0
    9.2614    2.5921    0.0000 O   0  0  0  0  0  1  0  0  0  0  0  0
    5.6515    0.9433    0.0000 C   0  0  0  0  0  0  0  0  0  0  0  0
    5.0281   -0.4210    0.0000 C   0  0  0  0  0  0  0  0  0  0  0  0
    3.5349   -0.5632    0.0000 C   0  0  0  0  0  0  0  0  0  0  0  0
   -6.2944   -0.1946    0.0000 C   0  0  0  0  0  0  0  0  0  0  0  0
   -5.4246   -1.4167    0.0000 O   0  0  0  0  0  0  0  0  0  0  0  0
  1  2  1  0
  2  3  1  0
  3  4  2  0
  4  5  1  0
  5  6  2  0
  6  7  1  0
  7  8  1  0
  8  9  2  0
  8 10  1  0
 10 11  1  0
 11 12  1  0
 12 13  1  0
 13 14  1  0
 14 15  1  0
 15 16  1  0
 16 17  1  0
 17 18  1  0
 18 19  2  0
 19 20  1  0
 20 21  2  0
 21 22  1  0
 22 23  2  0
 22 24  1  0
 21 25  1  0
 25 26  2  0
 26 27  1  0
  7 28  2  0
 28 29  1  0
 28  3  1  0
 27 15  1  0
 26 18  1  0
M  CHG  2  22   1  24  -1
M  END
>  <ChemBL_ID>  (329) 
CHEMBL1927697

>  <Ki>  (329) 
4000.0

>  <database>  (329) 
SRSLDB

$$$$

     RDKit          2D

 26 29  0  0  0  0  0  0  0  0999 V2000
    2.0979   -2.9948    0.0000 C   0  0  0  0  0  0  0  0  0  0  0  0
    0.7867   -2.2662    0.0000 N   0  0  0  0  0  0  0  0  0  0  0  0
   -0.4998   -3.0375    0.0000 C   0  0  0  0  0  0  0  0  0  0  0  0
   -1.8110   -2.3089    0.0000 C   0  0  0  0  0  0  0  0  0  0  0  0
   -1.8356   -0.8091    0.0000 C   0  0  0  0  0  0  0  0  0  0  0  0
   -3.1468   -0.0805    0.0000 C   0  0  0  0  0  0  0  0  0  0  0  0
   -3.1714    1.4193    0.0000 C   0  0  0  0  0  0  0  0  0  0  0  0
   -4.4826    2.1479    0.0000 C   0  0  0  0  0  0  0  0  0  0  0  0
   -5.7691    1.3767    0.0000 C   0  0  0  0  0  0  0  0  0  0  0  0
   -5.7445   -0.1231    0.0000 C   0  0  0  0  0  0  0  0  0  0  0  0
   -7.0311   -0.8944    0.0000 O   0  0  0  0  0  0  0  0  0  0  0  0
   -4.4333   -0.8517    0.0000 C   0  0  0  0  0  0  0  0  0  0  0  0
   -1.8602    0.6907    0.0000 C   0  0  0  0  0  0  0  0  0  0  0  0
   -0.5737    1.4619    0.0000 C   0  0  0  0  0  0  0  0  0  0  0  0
   -0.5983    2.9617    0.0000 O   0  0  0  0  0  0  0  0  0  0  0  0
    0.7375    0.7334    0.0000 C   0  0  0  0  0  0  0  0  0  0  0  0
    2.0241    1.5046    0.0000 C   0  0  0  0  0  0  0  0  0  0  0  0
    3.3352    0.7760    0.0000 C   0  0  0  0  0  0  0  0  0  0  0  0
    3.3599   -0.7238    0.0000 C   0  0  0  0  0  0  0  0  0  0  0  0
    4.6710   -1.4524    0.0000 C   0  0  0  0  0  0  0  0  0  0  0  0
    5.9576   -0.6812    0.0000 C   0  0  0  0  0  0  0  0  0  0  0  0
    5.9330    0.8186    0.0000 C   0  0  0  0  0  0  0  0  0  0  0  0
    7.2195    1.5899    0.0000 I   0  0  0  0  0  0  0  0  0  0  0  0
    4.6218    1.5472    0.0000 C   0  0  0  0  0  0  0  0  0  0  0  0
    0.7621   -0.7664    0.0000 C   0  0  0  0  0  0  0  0  0  0  0  0
   -0.5490   -0.0379    0.0000 C   0  0  0  0  0  0  0  0  0  0  0  0
  1  2  1  0
  2  3  1  0
  3  4  1  0
  4  5  1  0
  5  6  1  1
  6  7  2  0
  7  8  1  0
  8  9  2  0
  9 10  1  0
 10 11  1  0
 10 12  2  0
  5 13  1  0
 13 14  1  0
 14 15  2  0
 14 16  1  0
 16 17  2  0
 17 18  1  0
 18 19  2  0
 19 20  1  0
 20 21  2  0
 21 22  1  0
 22 23  1  0
 22 24  2  0
 16 25  1  0
 25 26  1  0
 25  2  1  6
 26  5  1  0
 12  6  1  0
 24 18  1  0
M  END
>  <ChemBL_ID>  (330) 
CHEMBL356639

>  <Ki>  (330) 
24.0

>  <database>  (330) 
SRSLDB

$$$$

     RDKit          2D

 30 33  0  0  0  0  0  0  0  0999 V2000
   -9.1466    0.4879    0.0000 C   0  0  0  0  0  0  0  0  0  0  0  0
   -8.1700   -0.6507    0.0000 O   0  0  0  0  0  0  0  0  0  0  0  0
   -6.6957   -0.3743    0.0000 C   0  0  0  0  0  0  0  0  0  0  0  0
   -6.1979    1.0407    0.0000 C   0  0  0  0  0  0  0  0  0  0  0  0
   -4.7236    1.3172    0.0000 C   0  0  0  0  0  0  0  0  0  0  0  0
   -3.7471    0.1786    0.0000 C   0  0  0  0  0  0  0  0  0  0  0  0
   -4.2449   -1.2364    0.0000 C   0  0  0  0  0  0  0  0  0  0  0  0
   -5.7192   -1.5128    0.0000 C   0  0  0  0  0  0  0  0  0  0  0  0
   -6.2169   -2.9278    0.0000 O   0  0  0  0  0  0  0  0  0  0  0  0
   -5.2404   -4.0664    0.0000 C   0  0  0  0  0  0  0  0  0  0  0  0
   -2.2728    0.4550    0.0000 C   0  0  0  0  0  0  0  0  0  0  0  0
   -1.7750    1.8700    0.0000 N   0  0  0  0  0  0  0  0  0  0  0  0
   -0.3007    2.1464    0.0000 C   0  0  0  0  0  0  0  0  0  0  0  0
    0.6759    1.0078    0.0000 C   0  0  0  0  0  0  0  0  0  0  0  0
    0.1781   -0.4072    0.0000 O   0  0  0  0  0  0  0  0  0  0  0  0
    2.1502    1.2842    0.0000 N   0  0  0  0  0  0  0  0  0  0  0  0
    3.1267    0.1457    0.0000 C   0  0  0  0  0  0  0  0  0  0  0  0
    2.6289   -1.2693    0.0000 C   0  0  0  0  0  0  0  0  0  0  0  0
    3.6055   -2.4079    0.0000 C   0  0  0  0  0  0  0  0  0  0  0  0
    5.0798   -2.1315    0.0000 C   0  0  0  0  0  0  0  0  0  0  0  0
    5.5776   -0.7165    0.0000 C   0  0  0  0  0  0  0  0  0  0  0  0
    7.0519   -0.4401    0.0000 C   0  0  0  0  0  0  0  0  0  0  0  0
    8.0284   -1.5787    0.0000 O   0  0  0  0  0  0  0  0  0  0  0  0
    9.5027   -1.3022    0.0000 C   0  0  0  0  0  0  0  0  0  0  0  0
    7.5496    0.9749    0.0000 C   0  0  0  0  0  0  0  0  0  0  0  0
    6.5731    2.1135    0.0000 C   0  0  0  0  0  0  0  0  0  0  0  0
    5.0988    1.8371    0.0000 C   0  0  0  0  0  0  0  0  0  0  0  0
    4.6010    0.4221    0.0000 C   0  0  0  0  0  0  0  0  0  0  0  0
   -2.7515    3.0086    0.0000 C   0  0  0  0  0  0  0  0  0  0  0  0
   -4.2259    2.7322    0.0000 C   0  0  0  0  0  0  0  0  0  0  0  0
  1  2  1  0
  2  3  1  0
  3  4  2  0
  4  5  1  0
  5  6  2  0
  6  7  1  0
  7  8  2  0
  8  9  1  0
  9 10  1  0
  6 11  1  0
 11 12  1  0
 12 13  1  0
 13 14  1  0
 14 15  2  0
 14 16  1  0
 16 17  1  0
 17 18  1  0
 18 19  1  0
 19 20  1  0
 20 21  1  0
 21 22  2  0
 22 23  1  0
 23 24  1  0
 22 25  1  0
 25 26  2  0
 26 27  1  0
 27 28  2  0
 12 29  1  0
 29 30  1  0
  8  3  1  0
 28 17  1  0
 30  5  1  0
 28 21  1  0
M  END
>  <Ki>  (331) 
1800.0

>  <database>  (331) 
SRSLDB

$$$$

     RDKit          2D

 27 30  0  0  0  0  0  0  0  0999 V2000
    0.1527    5.2122    0.0000 C   0  0  0  0  0  0  0  0  0  0  0  0
   -0.2317    3.7623    0.0000 C   0  0  0  0  0  0  0  0  0  0  0  0
   -1.6796    3.3703    0.0000 C   0  0  0  0  0  0  0  0  0  0  0  0
   -2.0640    1.9204    0.0000 C   0  0  0  0  0  0  0  0  0  0  0  0
   -3.5119    1.5284    0.0000 C   0  0  0  0  0  0  0  0  0  0  0  0
   -3.8963    0.0785    0.0000 N   0  0  0  0  0  0  0  0  0  0  0  0
   -5.2953   -0.4627    0.0000 C   0  0  0  0  0  0  0  0  0  0  0  0
   -6.5554    0.3510    0.0000 O   0  0  0  0  0  0  0  0  0  0  0  0
   -5.2129   -1.9604    0.0000 S   0  0  0  0  0  0  0  0  0  0  0  0
   -3.7630   -2.3449    0.0000 C   0  0  0  0  0  0  0  0  0  0  0  0
   -3.0785   -3.6796    0.0000 C   0  0  0  0  0  0  0  0  0  0  0  0
   -1.5804   -3.7542    0.0000 C   0  0  0  0  0  0  0  0  0  0  0  0
   -0.7667   -2.4941    0.0000 C   0  0  0  0  0  0  0  0  0  0  0  0
   -1.4512   -1.1593    0.0000 C   0  0  0  0  0  0  0  0  0  0  0  0
   -2.9493   -1.0847    0.0000 C   0  0  0  0  0  0  0  0  0  0  0  0
    0.8317    2.7044    0.0000 N   0  0  0  0  0  0  0  0  0  0  0  0
    0.4473    1.2545    0.0000 C   0  0  0  0  0  0  0  0  0  0  0  0
    1.5107    0.1967    0.0000 C   0  0  0  0  0  0  0  0  0  0  0  0
    2.9586    0.5887    0.0000 N   0  0  0  0  0  0  0  0  0  0  0  0
    4.0220   -0.4692    0.0000 C   0  0  0  0  0  0  0  0  0  0  0  0
    3.6376   -1.9191    0.0000 C   0  0  0  0  0  0  0  0  0  0  0  0
    4.7010   -2.9770    0.0000 C   0  0  0  0  0  0  0  0  0  0  0  0
    6.1488   -2.5850    0.0000 C   0  0  0  0  0  0  0  0  0  0  0  0
    6.5333   -1.1351    0.0000 C   0  0  0  0  0  0  0  0  0  0  0  0
    5.4699   -0.0772    0.0000 C   0  0  0  0  0  0  0  0  0  0  0  0
    3.3430    2.0386    0.0000 C   0  0  0  0  0  0  0  0  0  0  0  0
    2.2796    3.0965    0.0000 C   0  0  0  0  0  0  0  0  0  0  0  0
  1  2  1  0
  2  3  1  0
  3  4  1  0
  4  5  1  0
  5  6  1  0
  6  7  1  0
  7  8  2  0
  7  9  1  0
  9 10  1  0
 10 11  2  0
 11 12  1  0
 12 13  2  0
 13 14  1  0
 14 15  2  0
  2 16  1  0
 16 17  1  0
 17 18  1  0
 18 19  1  0
 19 20  1  0
 20 21  1  0
 21 22  1  0
 22 23  1  0
 23 24  1  0
 24 25  1  0
 19 26  1  0
 26 27  1  0
 15  6  1  0
 27 16  1  0
 15 10  1  0
 25 20  1  0
M  END
>  <Ki>  (332) 
3.15

>  <database>  (332) 
SRSLDB

$$$$

     RDKit          2D

 22 27  0  0  0  0  0  0  0  0999 V2000
    8.0169    1.1276    0.0000 F   0  0  0  0  0  0  0  0  0  0  0  0
    6.7660    0.2997    0.0000 C   0  0  0  0  0  0  0  0  0  0  0  0
    6.8575   -1.1975    0.0000 C   0  0  0  0  0  0  0  0  0  0  0  0
    5.6067   -2.0253    0.0000 C   0  0  0  0  0  0  0  0  0  0  0  0
    4.2643   -1.3560    0.0000 C   0  0  0  0  0  0  0  0  0  0  0  0
    4.1728    0.1412    0.0000 C   0  0  0  0  0  0  0  0  0  0  0  0
    2.8304    0.8106    0.0000 C   0  0  0  0  0  0  0  0  0  0  0  0
    1.5795   -0.0173    0.0000 C   0  0  0  0  0  0  0  0  0  0  0  0
    0.2372    0.6521    0.0000 C   0  0  0  0  0  0  0  0  0  0  0  0
   -1.0137   -0.1758    0.0000 N   0  0  0  0  0  0  0  0  0  0  0  0
   -2.3561    0.4935    0.0000 C   0  0  0  0  0  0  0  0  0  0  0  0
   -2.6036    1.9730    0.0000 C   0  0  0  0  0  0  0  0  0  0  0  0
   -3.1546    0.5779    0.0000 C   0  0  0  0  0  0  0  0  0  0  0  0
   -2.7804   -0.8747    0.0000 C   0  0  0  0  0  0  0  0  0  0  0  0
   -4.0463   -1.6795    0.0000 C   0  0  0  0  0  0  0  0  0  0  0  0
   -5.2028   -0.7243    0.0000 C   0  0  0  0  0  0  0  0  0  0  0  0
   -4.6518    0.6708    0.0000 C   0  0  0  0  0  0  0  0  0  0  0  0
   -5.0260    2.1234    0.0000 C   0  0  0  0  0  0  0  0  0  0  0  0
   -3.7601    2.9282    0.0000 C   0  0  0  0  0  0  0  0  0  0  0  0
   -6.1580   -1.8808    0.0000 C   0  0  0  0  0  0  0  0  0  0  0  0
   -5.0015   -2.8360    0.0000 C   0  0  0  0  0  0  0  0  0  0  0  0
    5.4236    0.9691    0.0000 C   0  0  0  0  0  0  0  0  0  0  0  0
  1  2  1  0
  2  3  2  0
  3  4  1  0
  4  5  2  0
  5  6  1  0
  6  7  1  0
  7  8  1  0
  8  9  1  0
  9 10  1  0
 10 11  1  0
 11 12  1  0
 12 13  1  0
 13 14  1  0
 14 15  1  0
 15 16  1  0
 16 17  1  0
 17 18  1  0
 18 19  1  0
 19 20  1  0
 20 21  1  0
  6 22  2  0
 22  2  1  0
 21 11  1  0
 19 12  1  0
 17 13  1  0
 21 15  1  0
 20 16  1  0
M  END
>  <ChemBL_ID>  (333) 
CHEMBL2432050

>  <Ki>  (333) 
9.0

>  <database>  (333) 
SRSLDB

$$$$

     RDKit          2D

 30 33  0  0  0  0  0  0  0  0999 V2000
   10.3581   -2.9044    0.0000 C   0  0  0  0  0  0  0  0  0  0  0  0
    8.9319   -2.4396    0.0000 C   0  0  0  0  0  0  0  0  0  0  0  0
    7.8163   -3.4423    0.0000 O   0  0  0  0  0  0  0  0  0  0  0  0
    8.6213   -0.9721    0.0000 N   0  0  0  0  0  0  0  0  0  0  0  0
    7.1952   -0.5074    0.0000 C   0  0  0  0  0  0  0  0  0  0  0  0
    6.0796   -1.5101    0.0000 C   0  0  0  0  0  0  0  0  0  0  0  0
    4.6534   -1.0453    0.0000 C   0  0  0  0  0  0  0  0  0  0  0  0
    4.3428    0.4222    0.0000 C   0  0  0  0  0  0  0  0  0  0  0  0
    5.4584    1.4249    0.0000 C   0  0  0  0  0  0  0  0  0  0  0  0
    6.8846    0.9601    0.0000 C   0  0  0  0  0  0  0  0  0  0  0  0
    4.8495    2.7958    0.0000 O   0  0  0  0  0  0  0  0  0  0  0  0
    3.3576    2.6403    0.0000 C   0  0  0  0  0  0  0  0  0  0  0  0
    2.3548    3.7559    0.0000 O   0  0  0  0  0  0  0  0  0  0  0  0
    3.0444    1.1733    0.0000 N   0  0  0  0  0  0  0  0  0  0  0  0
    1.6736    0.5644    0.0000 C   0  0  0  0  0  0  0  0  0  0  0  0
    0.4608    1.4472    0.0000 C   0  0  0  0  0  0  0  0  0  0  0  0
   -0.9100    0.8383    0.0000 C   0  0  0  0  0  0  0  0  0  0  0  0
   -2.1228    1.7210    0.0000 C   0  0  0  0  0  0  0  0  0  0  0  0
   -3.4936    1.1121    0.0000 N   0  0  0  0  0  0  0  0  0  0  0  0
   -4.7064    1.9948    0.0000 C   0  0  0  0  0  0  0  0  0  0  0  0
   -6.0773    1.3859    0.0000 C   0  0  0  0  0  0  0  0  0  0  0  0
   -6.2354   -0.1057    0.0000 N   0  0  0  0  0  0  0  0  0  0  0  0
   -7.6062   -0.7146    0.0000 C   0  0  0  0  0  0  0  0  0  0  0  0
   -8.8190    0.1681    0.0000 C   0  0  0  0  0  0  0  0  0  0  0  0
  -10.1898   -0.4408    0.0000 C   0  0  0  0  0  0  0  0  0  0  0  0
  -10.3479   -1.9324    0.0000 C   0  0  0  0  0  0  0  0  0  0  0  0
   -9.1352   -2.8152    0.0000 C   0  0  0  0  0  0  0  0  0  0  0  0
   -7.7643   -2.2063    0.0000 C   0  0  0  0  0  0  0  0  0  0  0  0
   -5.0226   -0.9885    0.0000 C   0  0  0  0  0  0  0  0  0  0  0  0
   -3.6517   -0.3796    0.0000 C   0  0  0  0  0  0  0  0  0  0  0  0
  1  2  1  0
  2  3  2  0
  2  4  1  0
  4  5  1  0
  5  6  2  0
  6  7  1  0
  7  8  2  0
  8  9  1  0
  9 10  2  0
  9 11  1  0
 11 12  1  0
 12 13  2  0
 12 14  1  0
 14 15  1  0
 15 16  1  0
 16 17  1  0
 17 18  1  0
 18 19  1  0
 19 20  1  0
 20 21  1  0
 21 22  1  0
 22 23  1  0
 23 24  1  0
 24 25  1  0
 25 26  1  0
 26 27  1  0
 27 28  1  0
 22 29  1  0
 29 30  1  0
 10  5  1  0
 30 19  1  0
 14  8  1  0
 28 23  1  0
M  END
>  <Ki>  (334) 
77.37

>  <database>  (334) 
SRSLDB

$$$$

     RDKit          2D

 29 33  0  0  0  0  0  0  0  0999 V2000
    3.6936   -3.9797    0.0000 O   0  0  0  0  0  0  0  0  0  0  0  0
    2.8268   -2.7555    0.0000 C   0  0  0  0  0  0  0  0  0  0  0  0
    1.3332   -2.8940    0.0000 C   0  0  0  0  0  0  0  0  0  0  0  0
    0.4665   -1.6697    0.0000 C   0  0  0  0  0  0  0  0  0  0  0  0
    1.2802   -1.5436    0.0000 C   0  0  0  0  0  0  0  0  0  0  0  0
    2.6307   -1.4184    0.0000 N   0  0  0  0  0  0  0  0  0  0  0  0
    3.2138    1.1942    0.0000 C   0  0  0  0  0  0  0  0  0  0  0  0
    4.7074    1.3327    0.0000 C   0  0  0  0  0  0  0  0  0  0  0  0
    5.5741    0.1085    0.0000 C   0  0  0  0  0  0  0  0  0  0  0  0
    7.0677    0.2470    0.0000 C   0  0  0  0  0  0  0  0  0  0  0  0
    7.6946    1.6097    0.0000 C   0  0  0  0  0  0  0  0  0  0  0  0
    6.8278    2.8340    0.0000 C   0  0  0  0  0  0  0  0  0  0  0  0
    5.3343    2.6955    0.0000 C   0  0  0  0  0  0  0  0  0  0  0  0
    3.4537   -1.3927    0.0000 C   0  0  0  0  0  0  0  0  0  0  0  0
    2.5870   -0.1685    0.0000 C   0  0  0  0  0  0  0  0  0  0  0  0
    1.0934   -0.3070    0.0000 N   0  0  0  0  0  0  0  0  0  0  0  0
    0.2266    0.9173    0.0000 C   0  0  0  0  0  0  0  0  0  0  0  0
   -1.2670    0.7788    0.0000 C   0  0  0  0  0  0  0  0  0  0  0  0
   -2.1337    2.0030    0.0000 C   0  0  0  0  0  0  0  0  0  0  0  0
   -3.6273    1.8645    0.0000 C   0  0  0  0  0  0  0  0  0  0  0  0
   -4.2542    0.5018    0.0000 C   0  0  0  0  0  0  0  0  0  0  0  0
   -5.7477    0.3633    0.0000 C   0  0  0  0  0  0  0  0  0  0  0  0
   -6.6145    1.5875    0.0000 C   0  0  0  0  0  0  0  0  0  0  0  0
   -8.1081    1.4490    0.0000 C   0  0  0  0  0  0  0  0  0  0  0  0
   -8.7349    0.0863    0.0000 C   0  0  0  0  0  0  0  0  0  0  0  0
   -7.8682   -1.1380    0.0000 C   0  0  0  0  0  0  0  0  0  0  0  0
   -6.3746   -0.9995    0.0000 C   0  0  0  0  0  0  0  0  0  0  0  0
   -3.3874   -0.7225    0.0000 C   0  0  0  0  0  0  0  0  0  0  0  0
   -1.8938   -0.5840    0.0000 C   0  0  0  0  0  0  0  0  0  0  0  0
  2  1  1  1
  2  3  1  0
  4  3  1  6
  4  5  1  0
  5  6  1  0
  6  7  1  0
  7  8  1  0
  8  9  1  0
  9 10  1  0
 10 11  1  0
 11 12  1  0
 12 13  1  0
  6 14  1  0
 14 15  1  6
 15 16  1  0
 16 17  1  0
 17 18  1  0
 18 19  2  0
 19 20  1  0
 20 21  2  0
 21 22  1  0
 22 23  2  0
 23 24  1  0
 24 25  2  0
 25 26  1  0
 26 27  2  0
 21 28  1  0
 28 29  2  0
 14  2  1  0
 29 18  1  0
 16  4  1  0
 27 22  1  0
 13  8  1  0
M  END
>  <Compound_Key>  (335) 
43

>  <Ki>  (335) 
334.0

>  <database>  (335) 
NewLiterature

>  <Document_ChEMBL_ID>  (335) 
10.1021/acs.jmedchem.0c02265

$$$$

     RDKit          2D

 21 23  0  0  0  0  0  0  0  0999 V2000
    2.1598   -3.2626    0.0000 C   0  0  0  0  0  0  0  0  0  0  0  0
    1.6829   -1.8405    0.0000 C   0  0  0  0  0  0  0  0  0  0  0  0
    0.2128   -1.5424    0.0000 C   0  0  0  0  0  0  0  0  0  0  0  0
   -0.7804   -2.6665    0.0000 O   0  0  0  0  0  0  0  0  0  0  0  0
   -0.2641   -0.1202    0.0000 O   0  0  0  0  0  0  0  0  0  0  0  0
   -1.7342    0.1778    0.0000 C   0  0  0  0  0  0  0  0  0  0  0  0
   -2.7274   -0.9463    0.0000 C   0  0  0  0  0  0  0  0  0  0  0  0
   -4.1974   -0.6482    0.0000 C   0  0  0  0  0  0  0  0  0  0  0  0
   -5.5035    0.0895    0.0000 C   0  0  0  0  0  0  0  0  0  0  0  0
   -5.2054    1.5596    0.0000 C   0  0  0  0  0  0  0  0  0  0  0  0
   -3.7152    1.7304    0.0000 C   0  0  0  0  0  0  0  0  0  0  0  0
   -2.2111    1.6000    0.0000 C   0  0  0  0  0  0  0  0  0  0  0  0
   -3.0922    0.3659    0.0000 N   0  0  0  0  0  0  0  0  0  0  0  0
   -2.2958    0.4013    0.0000 C   0  0  0  0  0  0  0  0  0  0  0  0
    2.6761   -0.7164    0.0000 C   0  0  0  0  0  0  0  0  0  0  0  0
    4.1462   -1.0144    0.0000 C   0  0  0  0  0  0  0  0  0  0  0  0
    5.1393    0.1097    0.0000 C   0  0  0  0  0  0  0  0  0  0  0  0
    4.6624    1.5318    0.0000 C   0  0  0  0  0  0  0  0  0  0  0  0
    5.6556    2.6559    0.0000 Br  0  0  0  0  0  0  0  0  0  0  0  0
    3.1923    1.8299    0.0000 C   0  0  0  0  0  0  0  0  0  0  0  0
    2.1992    0.7058    0.0000 C   0  0  0  0  0  0  0  0  0  0  0  0
  1  2  1  0
  2  3  1  0
  3  4  2  0
  3  5  1  0
  5  6  1  0
  6  7  1  0
  7  8  1  0
  8  9  1  0
  9 10  1  0
 10 11  1  0
 11 12  1  0
 11 13  1  0
 13 14  1  0
  2 15  1  0
 15 16  2  0
 16 17  1  0
 17 18  2  0
 18 19  1  0
 18 20  1  0
 20 21  2  0
 12  6  1  0
 21 15  1  0
 13  8  1  0
M  END
>  <ChemBL_ID>  (336) 
CHEMBL1199311

>  <Ki>  (336) 
614.0

>  <database>  (336) 
SRSLDB

$$$$

     RDKit          2D

 37 42  0  0  0  0  0  0  0  0999 V2000
   -6.9153    4.8232    0.0000 F   0  0  0  0  0  0  0  0  0  0  0  0
   -5.4481    4.5113    0.0000 C   0  0  0  0  0  0  0  0  0  0  0  0
   -4.4444    5.6260    0.0000 C   0  0  0  0  0  0  0  0  0  0  0  0
   -2.9772    5.3142    0.0000 C   0  0  0  0  0  0  0  0  0  0  0  0
   -2.5136    3.8876    0.0000 C   0  0  0  0  0  0  0  0  0  0  0  0
   -1.0464    3.5757    0.0000 N   0  0  0  0  0  0  0  0  0  0  0  0
   -0.5829    2.1491    0.0000 C   0  0  0  0  0  0  0  0  0  0  0  0
    0.8843    1.8373    0.0000 C   0  0  0  0  0  0  0  0  0  0  0  0
    1.8880    2.9520    0.0000 N   0  0  0  0  0  0  0  0  0  0  0  0
    3.3552    2.6401    0.0000 C   0  0  0  0  0  0  0  0  0  0  0  0
    3.8188    1.2135    0.0000 C   0  0  0  0  0  0  0  0  0  0  0  0
    2.9371   -0.0000    0.0000 C   0  0  0  0  0  0  0  0  0  0  0  0
    3.8188   -1.2135    0.0000 N   0  0  0  0  0  0  0  0  0  0  0  0
    3.3552   -2.6401    0.0000 C   0  0  0  0  0  0  0  0  0  0  0  0
    1.8880   -2.9520    0.0000 N   0  0  0  0  0  0  0  0  0  0  0  0
    0.8843   -1.8373    0.0000 C   0  0  0  0  0  0  0  0  0  0  0  0
   -0.5829   -2.1491    0.0000 C   0  0  0  0  0  0  0  0  0  0  0  0
   -1.0464   -3.5757    0.0000 N   0  0  0  0  0  0  0  0  0  0  0  0
   -2.5136   -3.8876    0.0000 C   0  0  0  0  0  0  0  0  0  0  0  0
   -3.5173   -2.7729    0.0000 C   0  0  0  0  0  0  0  0  0  0  0  0
   -4.9846   -3.0847    0.0000 C   0  0  0  0  0  0  0  0  0  0  0  0
   -5.4481   -4.5113    0.0000 C   0  0  0  0  0  0  0  0  0  0  0  0
   -6.9153   -4.8232    0.0000 F   0  0  0  0  0  0  0  0  0  0  0  0
   -4.4444   -5.6260    0.0000 C   0  0  0  0  0  0  0  0  0  0  0  0
   -2.9772   -5.3142    0.0000 C   0  0  0  0  0  0  0  0  0  0  0  0
   -0.0427   -4.6904    0.0000 C   0  0  0  0  0  0  0  0  0  0  0  0
    1.4245   -4.3786    0.0000 C   0  0  0  0  0  0  0  0  0  0  0  0
    5.2454   -0.7500    0.0000 C   0  0  0  0  0  0  0  0  0  0  0  0
    6.5444   -1.5000    0.0000 C   0  0  0  0  0  0  0  0  0  0  0  0
    7.8434   -0.7500    0.0000 C   0  0  0  0  0  0  0  0  0  0  0  0
    7.8434    0.7500    0.0000 C   0  0  0  0  0  0  0  0  0  0  0  0
    6.5444    1.5000    0.0000 C   0  0  0  0  0  0  0  0  0  0  0  0
    5.2454    0.7500    0.0000 C   0  0  0  0  0  0  0  0  0  0  0  0
    1.4245    4.3786    0.0000 C   0  0  0  0  0  0  0  0  0  0  0  0
   -0.0427    4.6904    0.0000 C   0  0  0  0  0  0  0  0  0  0  0  0
   -3.5173    2.7729    0.0000 C   0  0  0  0  0  0  0  0  0  0  0  0
   -4.9846    3.0847    0.0000 C   0  0  0  0  0  0  0  0  0  0  0  0
  1  2  1  0
  2  3  2  0
  3  4  1  0
  4  5  2  0
  5  6  1  0
  6  7  1  0
  7  8  1  0
  8  9  1  0
  9 10  1  0
 10 11  1  0
 11 12  2  0
 12 13  1  0
 13 14  1  0
 14 15  1  0
 15 16  1  0
 16 17  1  0
 17 18  1  0
 18 19  1  0
 19 20  2  0
 20 21  1  0
 21 22  2  0
 22 23  1  0
 22 24  1  0
 24 25  2  0
 18 26  1  0
 26 27  1  0
 13 28  1  0
 28 29  2  0
 29 30  1  0
 30 31  2  0
 31 32  1  0
 32 33  2  0
  9 34  1  0
 34 35  1  0
  5 36  1  0
 36 37  2  0
 37  2  1  0
 35  6  1  0
 33 11  1  0
 27 15  1  0
 33 28  1  0
 25 19  1  0
M  END
>  <Ki>  (337) 
1000.0

>  <database>  (337) 
SRSLDB

$$$$

     RDKit          2D

 22 24  0  0  0  0  0  0  0  0999 V2000
    1.8603   -2.2250    0.0000 C   0  0  0  0  0  0  0  0  0  0  0  0
    1.1074   -0.9277    0.0000 C   0  0  0  0  0  0  0  0  0  0  0  0
    1.8544    0.3730    0.0000 O   0  0  0  0  0  0  0  0  0  0  0  0
    3.3544    0.3764    0.0000 C   0  0  0  0  0  0  0  0  0  0  0  0
    4.1074   -0.9209    0.0000 C   0  0  0  0  0  0  0  0  0  0  0  0
    5.6074   -0.9175    0.0000 C   0  0  0  0  0  0  0  0  0  0  0  0
    6.3544    0.3833    0.0000 C   0  0  0  0  0  0  0  0  0  0  0  0
    7.8544    0.3867    0.0000 Br  0  0  0  0  0  0  0  0  0  0  0  0
    5.6015    1.6806    0.0000 C   0  0  0  0  0  0  0  0  0  0  0  0
    4.1015    1.6772    0.0000 C   0  0  0  0  0  0  0  0  0  0  0  0
   -0.3926   -0.9311    0.0000 C   0  0  0  0  0  0  0  0  0  0  0  0
   -1.1397   -2.2318    0.0000 O   0  0  0  0  0  0  0  0  0  0  0  0
   -1.1455    0.3662    0.0000 O   0  0  0  0  0  0  0  0  0  0  0  0
   -2.6455    0.3628    0.0000 C   0  0  0  0  0  0  0  0  0  0  0  0
   -3.3926   -0.9379    0.0000 C   0  0  0  0  0  0  0  0  0  0  0  0
   -4.8926   -0.9413    0.0000 C   0  0  0  0  0  0  0  0  0  0  0  0
   -6.3202   -0.4810    0.0000 C   0  0  0  0  0  0  0  0  0  0  0  0
   -6.3236    1.0190    0.0000 C   0  0  0  0  0  0  0  0  0  0  0  0
   -4.8981    1.4857    0.0000 C   0  0  0  0  0  0  0  0  0  0  0  0
   -3.3985    1.6602    0.0000 C   0  0  0  0  0  0  0  0  0  0  0  0
   -4.0137    0.2742    0.0000 N   0  0  0  0  0  0  0  0  0  0  0  0
   -3.2406    0.4689    0.0000 C   0  0  0  0  0  0  0  0  0  0  0  0
  1  2  1  0
  2  3  1  0
  3  4  1  0
  4  5  2  0
  5  6  1  0
  6  7  2  0
  7  8  1  0
  7  9  1  0
  9 10  2  0
  2 11  1  0
 11 12  2  0
 11 13  1  0
 13 14  1  0
 14 15  1  0
 15 16  1  0
 16 17  1  0
 17 18  1  0
 18 19  1  0
 19 20  1  0
 19 21  1  0
 21 22  1  0
 10  4  1  0
 20 14  1  0
 21 16  1  0
M  END
>  <ChemBL_ID>  (338) 
CHEMBL46349

>  <Ki>  (338) 
373.3

>  <database>  (338) 
SRSLDB

$$$$

     RDKit          2D

 36 40  0  0  0  0  0  0  0  0999 V2000
   -5.0780   -3.6999    0.0000 C   0  0  0  0  0  0  0  0  0  0  0  0
   -3.5818   -3.5939    0.0000 C   0  0  0  0  0  0  0  0  0  0  0  0
   -2.9254   -2.2451    0.0000 N   0  0  0  0  0  0  0  0  0  0  0  0
   -1.4292   -2.1391    0.0000 C   0  0  0  0  0  0  0  0  0  0  0  0
   -0.7728   -0.7903    0.0000 C   0  0  0  0  0  0  0  0  0  0  0  0
    0.7234   -0.6843    0.0000 C   0  0  0  0  0  0  0  0  0  0  0  0
    1.3797    0.6645    0.0000 C   0  0  0  0  0  0  0  0  0  0  0  0
    2.8760    0.7705    0.0000 C   0  0  0  0  0  0  0  0  0  0  0  0
    3.8412   -0.3777    0.0000 C   0  0  0  0  0  0  0  0  0  0  0  0
    5.2315    0.1855    0.0000 N   0  0  0  0  0  0  0  0  0  0  0  0
    6.5043   -0.6083    0.0000 C   0  0  0  0  0  0  0  0  0  0  0  0
    6.4533   -2.1074    0.0000 C   0  0  0  0  0  0  0  0  0  0  0  0
    7.7261   -2.9011    0.0000 C   0  0  0  0  0  0  0  0  0  0  0  0
    9.0499   -2.1957    0.0000 C   0  0  0  0  0  0  0  0  0  0  0  0
   10.3227   -2.9894    0.0000 F   0  0  0  0  0  0  0  0  0  0  0  0
    9.1008   -0.6966    0.0000 C   0  0  0  0  0  0  0  0  0  0  0  0
    7.8280    0.0971    0.0000 C   0  0  0  0  0  0  0  0  0  0  0  0
    5.1255    1.6817    0.0000 C   0  0  0  0  0  0  0  0  0  0  0  0
    6.1665    2.7617    0.0000 C   0  0  0  0  0  0  0  0  0  0  0  0
    5.7517    4.2032    0.0000 C   0  0  0  0  0  0  0  0  0  0  0  0
    4.2959    4.5647    0.0000 C   0  0  0  0  0  0  0  0  0  0  0  0
    3.2549    3.4848    0.0000 C   0  0  0  0  0  0  0  0  0  0  0  0
    3.6697    2.0433    0.0000 C   0  0  0  0  0  0  0  0  0  0  0  0
   -3.7653   -1.0023    0.0000 C   0  0  0  0  0  0  0  0  0  0  0  0
   -3.2536    0.4077    0.0000 C   0  0  0  0  0  0  0  0  0  0  0  0
   -4.4365    1.3301    0.0000 C   0  0  0  0  0  0  0  0  0  0  0  0
   -5.6792    0.4902    0.0000 C   0  0  0  0  0  0  0  0  0  0  0  0
   -5.2645   -0.9513    0.0000 C   0  0  0  0  0  0  0  0  0  0  0  0
   -6.3055   -2.0313    0.0000 C   0  0  0  0  0  0  0  0  0  0  0  0
   -7.7613   -1.6697    0.0000 C   0  0  0  0  0  0  0  0  0  0  0  0
   -8.1760   -0.2282    0.0000 C   0  0  0  0  0  0  0  0  0  0  0  0
   -9.6318    0.1334    0.0000 O   0  0  0  0  0  0  0  0  0  0  0  0
  -10.0466    1.5749    0.0000 C   0  0  0  0  0  0  0  0  0  0  0  0
   -7.1350    0.8518    0.0000 C   0  0  0  0  0  0  0  0  0  0  0  0
   -7.5498    2.2933    0.0000 O   0  0  0  0  0  0  0  0  0  0  0  0
   -6.5088    3.3732    0.0000 C   0  0  0  0  0  0  0  0  0  0  0  0
  1  2  1  0
  2  3  1  0
  3  4  1  0
  4  5  1  0
  5  6  1  0
  6  7  1  0
  7  8  1  0
  8  9  2  0
  9 10  1  0
 10 11  1  0
 11 12  2  0
 12 13  1  0
 13 14  2  0
 14 15  1  0
 14 16  1  0
 16 17  2  0
 10 18  1  0
 18 19  2  0
 19 20  1  0
 20 21  2  0
 21 22  1  0
 22 23  2  0
 24  3  1  6
 24 25  1  0
 25 26  1  0
 26 27  1  0
 27 28  2  0
 28 29  1  0
 29 30  2  0
 30 31  1  0
 31 32  1  0
 32 33  1  0
 31 34  2  0
 34 35  1  0
 35 36  1  0
 23  8  1  0
 28 24  1  0
 17 11  1  0
 23 18  1  0
 34 27  1  0
M  END
>  <Ki>  (339) 
19.0

>  <database>  (339) 
SRSLDB

$$$$

     RDKit          2D

 23 25  0  0  0  0  0  0  0  0999 V2000
    1.4784   -2.4226    0.0000 C   0  0  0  0  0  0  0  0  0  0  0  0
    0.7837   -1.0931    0.0000 C   0  0  0  0  0  0  0  0  0  0  0  0
    1.5877    0.1732    0.0000 O   0  0  0  0  0  0  0  0  0  0  0  0
    3.0863    0.1101    0.0000 C   0  0  0  0  0  0  0  0  0  0  0  0
    3.7810   -1.2193    0.0000 C   0  0  0  0  0  0  0  0  0  0  0  0
    5.2797   -1.2824    0.0000 C   0  0  0  0  0  0  0  0  0  0  0  0
    6.0837   -0.0161    0.0000 C   0  0  0  0  0  0  0  0  0  0  0  0
    7.5824   -0.0792    0.0000 Cl  0  0  0  0  0  0  0  0  0  0  0  0
    5.3890    1.3134    0.0000 C   0  0  0  0  0  0  0  0  0  0  0  0
    6.1930    2.5797    0.0000 Cl  0  0  0  0  0  0  0  0  0  0  0  0
    3.8903    1.3765    0.0000 C   0  0  0  0  0  0  0  0  0  0  0  0
   -0.7150   -1.0300    0.0000 C   0  0  0  0  0  0  0  0  0  0  0  0
   -1.5190   -2.2964    0.0000 O   0  0  0  0  0  0  0  0  0  0  0  0
   -1.4097    0.2994    0.0000 O   0  0  0  0  0  0  0  0  0  0  0  0
   -2.9084    0.3625    0.0000 C   0  0  0  0  0  0  0  0  0  0  0  0
   -3.7123   -0.9038    0.0000 C   0  0  0  0  0  0  0  0  0  0  0  0
   -5.2110   -0.8407    0.0000 C   0  0  0  0  0  0  0  0  0  0  0  0
   -6.6168   -0.3176    0.0000 C   0  0  0  0  0  0  0  0  0  0  0  0
   -6.5537    1.1810    0.0000 C   0  0  0  0  0  0  0  0  0  0  0  0
   -5.1089    1.5842    0.0000 C   0  0  0  0  0  0  0  0  0  0  0  0
   -3.6030    1.6919    0.0000 C   0  0  0  0  0  0  0  0  0  0  0  0
   -4.2791    0.3346    0.0000 N   0  0  0  0  0  0  0  0  0  0  0  0
   -3.4982    0.4948    0.0000 C   0  0  0  0  0  0  0  0  0  0  0  0
  1  2  1  0
  2  3  1  0
  3  4  1  0
  4  5  2  0
  5  6  1  0
  6  7  2  0
  7  8  1  0
  7  9  1  0
  9 10  1  0
  9 11  2  0
  2 12  1  0
 12 13  2  0
 12 14  1  0
 14 15  1  0
 15 16  1  0
 16 17  1  0
 17 18  1  0
 18 19  1  0
 19 20  1  0
 20 21  1  0
 20 22  1  0
 22 23  1  0
 11  4  1  0
 21 15  1  0
 22 17  1  0
M  END
>  <ChemBL_ID>  (340) 
CHEMBL1199835

>  <Ki>  (340) 
320.0

>  <database>  (340) 
SRSLDB

$$$$

     RDKit          2D

 21 26  0  0  0  0  0  0  0  0999 V2000
    1.3960   -2.1918    0.0000 C   0  0  0  0  0  0  0  0  0  0  0  0
    0.7533   -0.8365    0.0000 N   0  0  0  0  0  0  0  0  0  0  0  0
    1.6056    0.3978    0.0000 C   0  0  0  0  0  0  0  0  0  0  0  0
    3.1008    0.2768    0.0000 C   0  0  0  0  0  0  0  0  0  0  0  0
    3.7435   -1.0785    0.0000 C   0  0  0  0  0  0  0  0  0  0  0  0
    5.2386   -1.1995    0.0000 C   0  0  0  0  0  0  0  0  0  0  0  0
    6.0910    0.0348    0.0000 C   0  0  0  0  0  0  0  0  0  0  0  0
    5.4482    1.3901    0.0000 C   0  0  0  0  0  0  0  0  0  0  0  0
    3.9531    1.5111    0.0000 C   0  0  0  0  0  0  0  0  0  0  0  0
   -1.6008    0.3901    0.0000 C   0  0  0  0  0  0  0  0  0  0  0  0
   -1.7185   -1.8539    0.0000 C   0  0  0  0  0  0  0  0  0  0  0  0
   -1.1414   -0.4693    0.0000 C   0  0  0  0  0  0  0  0  0  0  0  0
   -2.4221   -1.2502    0.0000 C   0  0  0  0  0  0  0  0  0  0  0  0
   -3.5606   -0.2735    0.0000 C   0  0  0  0  0  0  0  0  0  0  0  0
   -3.2137   -1.7329    0.0000 C   0  0  0  0  0  0  0  0  0  0  0  0
   -3.4818    0.0243    0.0000 C   0  0  0  0  0  0  0  0  0  0  0  0
   -5.4897   -0.3311    0.0000 O   0  0  0  0  0  0  0  0  0  0  0  0
   -2.8624    2.6061    0.0000 C   0  0  0  0  0  0  0  0  0  0  0  0
   -2.9835    1.1110    0.0000 C   0  0  0  0  0  0  0  0  0  0  0  0
   -1.4883    0.9900    0.0000 C   0  0  0  0  0  0  0  0  0  0  0  0
   -1.3673    2.4851    0.0000 C   0  0  0  0  0  0  0  0  0  0  0  0
  1  2  1  0
  2  3  1  0
  3  4  1  0
  4  5  2  0
  5  6  1  0
  6  7  2  0
  7  8  1  0
  8  9  2  0
 10  2  1  6
 10 11  1  0
 11 12  1  0
 12 13  1  0
 13 14  1  0
 14 15  1  0
 15 16  1  0
 16 17  2  0
 16 18  1  0
 18 19  1  0
 19 20  1  0
 20 21  1  0
  9  4  1  0
 21 10  1  0
 15 11  1  0
 21 18  1  0
 20 12  1  0
 19 14  1  0
M  END
>  <ChemBL_ID>  (341) 
CHEMBL2432040

>  <Ki>  (341) 
217.0

>  <database>  (341) 
SRSLDB

$$$$

     RDKit          2D

 30 33  0  0  0  0  0  0  0  0999 V2000
   -9.1466    0.4879    0.0000 C   0  0  0  0  0  0  0  0  0  0  0  0
   -8.1700   -0.6507    0.0000 O   0  0  0  0  0  0  0  0  0  0  0  0
   -6.6957   -0.3743    0.0000 C   0  0  0  0  0  0  0  0  0  0  0  0
   -6.1979    1.0407    0.0000 C   0  0  0  0  0  0  0  0  0  0  0  0
   -4.7236    1.3172    0.0000 C   0  0  0  0  0  0  0  0  0  0  0  0
   -3.7471    0.1786    0.0000 C   0  0  0  0  0  0  0  0  0  0  0  0
   -4.2449   -1.2364    0.0000 C   0  0  0  0  0  0  0  0  0  0  0  0
   -5.7192   -1.5128    0.0000 C   0  0  0  0  0  0  0  0  0  0  0  0
   -6.2169   -2.9278    0.0000 O   0  0  0  0  0  0  0  0  0  0  0  0
   -5.2404   -4.0664    0.0000 C   0  0  0  0  0  0  0  0  0  0  0  0
   -2.2728    0.4550    0.0000 C   0  0  0  0  0  0  0  0  0  0  0  0
   -1.7750    1.8700    0.0000 N   0  0  0  0  0  0  0  0  0  0  0  0
   -0.3007    2.1464    0.0000 C   0  0  0  0  0  0  0  0  0  0  0  0
    0.6759    1.0078    0.0000 C   0  0  0  0  0  0  0  0  0  0  0  0
    0.1781   -0.4072    0.0000 O   0  0  0  0  0  0  0  0  0  0  0  0
    2.1502    1.2842    0.0000 N   0  0  0  0  0  0  0  0  0  0  0  0
    3.1267    0.1457    0.0000 C   0  0  0  0  0  0  0  0  0  0  0  0
    2.6289   -1.2693    0.0000 C   0  0  0  0  0  0  0  0  0  0  0  0
    3.6055   -2.4079    0.0000 C   0  0  0  0  0  0  0  0  0  0  0  0
    5.0798   -2.1315    0.0000 C   0  0  0  0  0  0  0  0  0  0  0  0
    5.5776   -0.7165    0.0000 C   0  0  0  0  0  0  0  0  0  0  0  0
    7.0519   -0.4401    0.0000 C   0  0  0  0  0  0  0  0  0  0  0  0
    8.0284   -1.5787    0.0000 O   0  0  0  0  0  0  0  0  0  0  0  0
    9.5027   -1.3022    0.0000 C   0  0  0  0  0  0  0  0  0  0  0  0
    7.5496    0.9749    0.0000 C   0  0  0  0  0  0  0  0  0  0  0  0
    6.5731    2.1135    0.0000 C   0  0  0  0  0  0  0  0  0  0  0  0
    5.0988    1.8371    0.0000 C   0  0  0  0  0  0  0  0  0  0  0  0
    4.6010    0.4221    0.0000 C   0  0  0  0  0  0  0  0  0  0  0  0
   -2.7515    3.0086    0.0000 C   0  0  0  0  0  0  0  0  0  0  0  0
   -4.2259    2.7322    0.0000 C   0  0  0  0  0  0  0  0  0  0  0  0
  1  2  1  0
  2  3  1  0
  3  4  2  0
  4  5  1  0
  5  6  2  0
  6  7  1  0
  7  8  2  0
  8  9  1  0
  9 10  1  0
  6 11  1  0
 11 12  1  0
 12 13  1  0
 13 14  1  0
 14 15  2  0
 14 16  1  0
 17 16  1  1
 17 18  1  0
 18 19  1  0
 19 20  1  0
 20 21  1  0
 21 22  2  0
 22 23  1  0
 23 24  1  0
 22 25  1  0
 25 26  2  0
 26 27  1  0
 27 28  2  0
 12 29  1  0
 29 30  1  0
  8  3  1  0
 28 17  1  0
 30  5  1  0
 28 21  1  0
M  END
>  <Ki>  (342) 
1946.0

>  <database>  (342) 
SRSLDB

$$$$

     RDKit          2D

 53 58  0  0  0  0  0  0  0  0999 V2000
   -7.2481    2.8486    0.0000 O   0  0  0  0  0  0  0  0  0  0  0  0
   -6.8698    1.3971    0.0000 C   0  0  0  0  0  0  0  0  0  0  0  0
   -7.9377    0.3438    0.0000 C   0  0  0  0  0  0  0  0  0  0  0  0
   -9.3839    0.7419    0.0000 C   0  0  0  0  0  0  0  0  0  0  0  0
  -10.4518   -0.3114    0.0000 C   0  0  0  0  0  0  0  0  0  0  0  0
  -11.8980    0.0867    0.0000 C   0  0  0  0  0  0  0  0  0  0  0  0
  -12.9659   -0.9666    0.0000 C   0  0  0  0  0  0  0  0  0  0  0  0
  -12.7415   -2.4498    0.0000 S   0  0  0  0  0  0  0  0  0  0  0  0
  -14.0826   -3.1216    0.0000 C   0  0  0  0  0  0  0  0  0  0  0  0
  -15.1360   -2.0536    0.0000 C   0  0  0  0  0  0  0  0  0  0  0  0
  -16.6159   -1.8088    0.0000 N   0  0  0  0  0  0  0  0  0  0  0  0
  -16.8403   -0.3257    0.0000 C   0  0  0  0  0  0  0  0  0  0  0  0
  -18.1722    0.3644    0.0000 O   0  0  0  0  0  0  0  0  0  0  0  0
  -15.4992    0.3461    0.0000 N   0  0  0  0  0  0  0  0  0  0  0  0
  -14.4458   -0.7218    0.0000 C   0  0  0  0  0  0  0  0  0  0  0  0
   -5.4236    0.9990    0.0000 N   0  0  0  0  0  0  0  0  0  0  0  0
   -4.3557    2.0523    0.0000 C   0  0  0  0  0  0  0  0  0  0  0  0
   -2.9095    1.6542    0.0000 C   0  0  0  0  0  0  0  0  0  0  0  0
   -1.8416    2.7075    0.0000 C   0  0  0  0  0  0  0  0  0  0  0  0
   -0.3954    2.3094    0.0000 N   0  0  0  0  0  0  0  0  0  0  0  0
    0.6725    3.3628    0.0000 C   0  0  0  0  0  0  0  0  0  0  0  0
    2.1187    2.9646    0.0000 C   0  0  0  0  0  0  0  0  0  0  0  0
    3.1866    4.0180    0.0000 C   0  0  0  0  0  0  0  0  0  0  0  0
    4.6328    3.6198    0.0000 N   0  0  0  0  0  0  0  0  0  0  0  0
    5.0110    2.1683    0.0000 C   0  0  0  0  0  0  0  0  0  0  0  0
    6.4572    1.7701    0.0000 C   0  0  0  0  0  0  0  0  0  0  0  0
    7.5251    2.8235    0.0000 N   0  0  0  0  0  0  0  0  0  0  0  0
    8.9713    2.4253    0.0000 C   0  0  0  0  0  0  0  0  0  0  0  0
    9.3496    0.9738    0.0000 C   0  0  0  0  0  0  0  0  0  0  0  0
   10.7958    0.5757    0.0000 C   0  0  0  0  0  0  0  0  0  0  0  0
   11.8637    1.6290    0.0000 C   0  0  0  0  0  0  0  0  0  0  0  0
   11.4854    3.0805    0.0000 C   0  0  0  0  0  0  0  0  0  0  0  0
   10.0392    3.4787    0.0000 C   0  0  0  0  0  0  0  0  0  0  0  0
    7.1469    4.2750    0.0000 C   0  0  0  0  0  0  0  0  0  0  0  0
    5.7007    4.6732    0.0000 C   0  0  0  0  0  0  0  0  0  0  0  0
   -0.0172    0.8579    0.0000 C   0  0  0  0  0  0  0  0  0  0  0  0
    1.4290    0.4597    0.0000 C   0  0  0  0  0  0  0  0  0  0  0  0
    2.4969    1.5131    0.0000 O   0  0  0  0  0  0  0  0  0  0  0  0
    1.8073   -0.9918    0.0000 N   0  0  0  0  0  0  0  0  0  0  0  0
    3.2535   -1.3900    0.0000 C   0  0  0  0  0  0  0  0  0  0  0  0
    3.6318   -2.8415    0.0000 C   0  0  0  0  0  0  0  0  0  0  0  0
    5.0780   -3.2396    0.0000 C   0  0  0  0  0  0  0  0  0  0  0  0
    6.1459   -2.1863    0.0000 C   0  0  0  0  0  0  0  0  0  0  0  0
    7.5921   -2.5844    0.0000 C   0  0  0  0  0  0  0  0  0  0  0  0
    8.6600   -1.5311    0.0000 O   0  0  0  0  0  0  0  0  0  0  0  0
    7.9704   -4.0359    0.0000 C   0  0  0  0  0  0  0  0  0  0  0  0
    6.9025   -5.0893    0.0000 C   0  0  0  0  0  0  0  0  0  0  0  0
    7.2807   -6.5408    0.0000 C   0  0  0  0  0  0  0  0  0  0  0  0
    8.7269   -6.9390    0.0000 C   0  0  0  0  0  0  0  0  0  0  0  0
    9.7948   -5.8856    0.0000 C   0  0  0  0  0  0  0  0  0  0  0  0
    9.4166   -4.4341    0.0000 C   0  0  0  0  0  0  0  0  0  0  0  0
    5.7676   -0.7347    0.0000 C   0  0  0  0  0  0  0  0  0  0  0  0
    4.3214   -0.3366    0.0000 C   0  0  0  0  0  0  0  0  0  0  0  0
  1  2  2  0
  2  3  1  0
  3  4  1  0
  4  5  1  0
  5  6  1  0
  7  6  1  6
  7  8  1  0
  8  9  1  0
  9 10  1  0
 10 11  1  0
 11 12  1  0
 12 13  2  0
 12 14  1  0
 14 15  1  0
  2 16  1  0
 16 17  1  0
 17 18  1  0
 18 19  1  0
 19 20  1  0
 20 21  1  0
 21 22  1  0
 22 23  1  0
 23 24  1  0
 24 25  1  0
 25 26  1  0
 26 27  1  0
 27 28  1  0
 28 29  1  0
 29 30  1  0
 30 31  1  0
 31 32  1  0
 32 33  1  0
 27 34  1  0
 34 35  1  0
 20 36  1  0
 36 37  1  0
 37 38  2  0
 37 39  1  0
 39 40  1  0
 40 41  2  0
 41 42  1  0
 42 43  2  0
 43 44  1  0
 44 45  2  0
 44 46  1  0
 46 47  2  0
 47 48  1  0
 48 49  2  0
 49 50  1  0
 50 51  2  0
 43 52  1  0
 52 53  2  0
 15  7  1  0
 35 24  1  0
 53 40  1  0
 15 10  1  0
 33 28  1  0
 51 46  1  0
M  END
>  <Ki>  (343) 
86.54

>  <database>  (343) 
SRSLDB

$$$$

     RDKit          2D

 28 31  0  0  0  0  0  0  0  0999 V2000
    5.3759    3.1507    0.0000 C   0  0  0  0  0  0  0  0  0  0  0  0
    4.0107    2.5291    0.0000 O   0  0  0  0  0  0  0  0  0  0  0  0
    3.8665    1.0361    0.0000 C   0  0  0  0  0  0  0  0  0  0  0  0
    5.0873    0.1646    0.0000 C   0  0  0  0  0  0  0  0  0  0  0  0
    4.9431   -1.3285    0.0000 C   0  0  0  0  0  0  0  0  0  0  0  0
    6.1639   -2.1999    0.0000 Cl  0  0  0  0  0  0  0  0  0  0  0  0
    3.5779   -1.9500    0.0000 C   0  0  0  0  0  0  0  0  0  0  0  0
    2.3570   -1.0786    0.0000 C   0  0  0  0  0  0  0  0  0  0  0  0
    2.5013    0.4145    0.0000 C   0  0  0  0  0  0  0  0  0  0  0  0
    1.2804    1.2860    0.0000 N   0  0  0  0  0  0  0  0  0  0  0  0
   -0.0847    0.6644    0.0000 C   0  0  0  0  0  0  0  0  0  0  0  0
   -0.2290   -0.8287    0.0000 O   0  0  0  0  0  0  0  0  0  0  0  0
   -1.3056    1.5359    0.0000 O   0  0  0  0  0  0  0  0  0  0  0  0
   -2.6708    0.9143    0.0000 C   0  0  0  0  0  0  0  0  0  0  0  0
   -2.8150   -0.5788    0.0000 C   0  0  0  0  0  0  0  0  0  0  0  0
   -4.1802   -1.2003    0.0000 C   0  0  0  0  0  0  0  0  0  0  0  0
   -5.6706   -1.3696    0.0000 C   0  0  0  0  0  0  0  0  0  0  0  0
   -6.2922   -0.0045    0.0000 C   0  0  0  0  0  0  0  0  0  0  0  0
   -5.1859    1.0085    0.0000 C   0  0  0  0  0  0  0  0  0  0  0  0
   -3.8916    1.7858    0.0000 C   0  0  0  0  0  0  0  0  0  0  0  0
   -3.8806    0.2695    0.0000 N   0  0  0  0  0  0  0  0  0  0  0  0
   -2.5155    0.8910    0.0000 C   0  0  0  0  0  0  0  0  0  0  0  0
   -1.2946    0.0196    0.0000 C   0  0  0  0  0  0  0  0  0  0  0  0
   -1.4389   -1.4735    0.0000 C   0  0  0  0  0  0  0  0  0  0  0  0
   -0.2180   -2.3450    0.0000 C   0  0  0  0  0  0  0  0  0  0  0  0
    1.1471   -1.7234    0.0000 C   0  0  0  0  0  0  0  0  0  0  0  0
    1.2914   -0.2303    0.0000 C   0  0  0  0  0  0  0  0  0  0  0  0
    0.0706    0.6411    0.0000 C   0  0  0  0  0  0  0  0  0  0  0  0
  1  2  1  0
  2  3  1  0
  3  4  2  0
  4  5  1  0
  5  6  1  0
  5  7  2  0
  7  8  1  0
  8  9  2  0
  9 10  1  0
 10 11  1  0
 11 12  2  0
 11 13  1  0
 13 14  1  0
 14 15  1  0
 15 16  1  0
 16 17  1  0
 17 18  1  0
 18 19  1  0
 19 20  1  0
 19 21  1  0
 21 22  1  0
 22 23  1  0
 23 24  2  0
 24 25  1  0
 25 26  2  0
 26 27  1  0
 27 28  2  0
  9  3  1  0
 20 14  1  0
 28 23  1  0
 21 16  1  0
M  END
>  <Ki>  (344) 
10.1

>  <database>  (344) 
SRSLDB

$$$$

     RDKit          2D

 25 28  0  0  0  0  0  0  0  0999 V2000
    7.9872   -0.9145    0.0000 C   0  0  0  0  0  0  0  0  0  0  0  0
    6.9250   -1.9736    0.0000 C   0  0  0  0  0  0  0  0  0  0  0  0
    5.4767   -1.5834    0.0000 C   0  0  0  0  0  0  0  0  0  0  0  0
    5.0905   -0.1339    0.0000 C   0  0  0  0  0  0  0  0  0  0  0  0
    6.1526    0.9252    0.0000 C   0  0  0  0  0  0  0  0  0  0  0  0
    7.6010    0.5350    0.0000 C   0  0  0  0  0  0  0  0  0  0  0  0
    5.7664    2.3747    0.0000 C   0  0  0  0  0  0  0  0  0  0  0  0
    4.3181    2.7649    0.0000 C   0  0  0  0  0  0  0  0  0  0  0  0
    3.2559    1.7058    0.0000 C   0  0  0  0  0  0  0  0  0  0  0  0
    3.6421    0.2563    0.0000 C   0  0  0  0  0  0  0  0  0  0  0  0
    2.5800   -0.8028    0.0000 C   0  0  0  0  0  0  0  0  0  0  0  0
    1.1316   -0.4126    0.0000 C   0  0  0  0  0  0  0  0  0  0  0  0
    0.0695   -1.4717    0.0000 C   0  0  0  0  0  0  0  0  0  0  0  0
   -1.3789   -1.0815    0.0000 N   0  0  0  0  0  0  0  0  0  0  0  0
   -1.7650    0.3680    0.0000 C   0  0  0  0  0  0  0  0  0  0  0  0
   -3.2134    0.7582    0.0000 C   0  0  0  0  0  0  0  0  0  0  0  0
   -4.2755   -0.3009    0.0000 N   0  0  0  0  0  0  0  0  0  0  0  0
   -5.7239    0.0893    0.0000 C   0  0  0  0  0  0  0  0  0  0  0  0
   -6.1101    1.5388    0.0000 N   0  0  0  0  0  0  0  0  0  0  0  0
   -7.5584    1.9290    0.0000 C   0  0  0  0  0  0  0  0  0  0  0  0
   -8.6206    0.8699    0.0000 C   0  0  0  0  0  0  0  0  0  0  0  0
   -8.2344   -0.5796    0.0000 C   0  0  0  0  0  0  0  0  0  0  0  0
   -6.7860   -0.9698    0.0000 C   0  0  0  0  0  0  0  0  0  0  0  0
   -3.8894   -1.7504    0.0000 C   0  0  0  0  0  0  0  0  0  0  0  0
   -2.4410   -2.1406    0.0000 C   0  0  0  0  0  0  0  0  0  0  0  0
  1  2  2  0
  2  3  1  0
  3  4  2  0
  4  5  1  0
  5  6  2  0
  5  7  1  0
  7  8  1  0
  8  9  1  0
  9 10  1  0
 10 11  1  0
 11 12  1  0
 12 13  1  0
 13 14  1  0
 14 15  1  0
 15 16  1  0
 16 17  1  0
 17 18  1  0
 18 19  2  0
 19 20  1  0
 20 21  1  0
 21 22  1  0
 22 23  1  0
 17 24  1  0
 24 25  1  0
  6  1  1  0
 25 14  1  0
 10  4  1  0
 23 18  1  0
M  END
>  <ChemBL_ID>  (345) 
CHEMBL300408

>  <Ki>  (345) 
43.8

>  <database>  (345) 
SRSLDB

$$$$

     RDKit          2D

 30 33  0  0  0  0  0  0  0  0999 V2000
   -8.9315   -2.1339    0.0000 C   0  0  0  0  0  0  0  0  0  0  0  0
   -7.5989   -1.4453    0.0000 C   0  0  0  0  0  0  0  0  0  0  0  0
   -7.5290    0.0531    0.0000 C   0  0  0  0  0  0  0  0  0  0  0  0
   -6.1964    0.7417    0.0000 C   0  0  0  0  0  0  0  0  0  0  0  0
   -4.9337   -0.0680    0.0000 C   0  0  0  0  0  0  0  0  0  0  0  0
   -3.6011    0.6207    0.0000 C   0  0  0  0  0  0  0  0  0  0  0  0
   -3.5312    2.1190    0.0000 N   0  0  0  0  0  0  0  0  0  0  0  0
   -4.7939    2.9288    0.0000 C   0  0  0  0  0  0  0  0  0  0  0  0
   -2.1987    2.8077    0.0000 C   0  0  0  0  0  0  0  0  0  0  0  0
   -0.9360    1.9979    0.0000 C   0  0  0  0  0  0  0  0  0  0  0  0
    0.3966    2.6866    0.0000 C   0  0  0  0  0  0  0  0  0  0  0  0
    1.6593    1.8768    0.0000 C   0  0  0  0  0  0  0  0  0  0  0  0
    1.7464    0.3794    0.0000 C   0  0  0  0  0  0  0  0  0  0  0  0
    3.1975   -0.0005    0.0000 N   0  0  0  0  0  0  0  0  0  0  0  0
    3.7430   -1.3978    0.0000 C   0  0  0  0  0  0  0  0  0  0  0  0
    2.8058   -2.5689    0.0000 C   0  0  0  0  0  0  0  0  0  0  0  0
    3.3513   -3.9662    0.0000 C   0  0  0  0  0  0  0  0  0  0  0  0
    4.8342   -4.1923    0.0000 C   0  0  0  0  0  0  0  0  0  0  0  0
    5.3798   -5.5896    0.0000 F   0  0  0  0  0  0  0  0  0  0  0  0
    5.7715   -3.0212    0.0000 C   0  0  0  0  0  0  0  0  0  0  0  0
    5.2259   -1.6239    0.0000 C   0  0  0  0  0  0  0  0  0  0  0  0
    4.0072    1.2621    0.0000 C   0  0  0  0  0  0  0  0  0  0  0  0
    5.4873    1.5053    0.0000 C   0  0  0  0  0  0  0  0  0  0  0  0
    6.0169    2.9087    0.0000 C   0  0  0  0  0  0  0  0  0  0  0  0
    5.0662    4.0690    0.0000 C   0  0  0  0  0  0  0  0  0  0  0  0
    3.5860    3.8259    0.0000 C   0  0  0  0  0  0  0  0  0  0  0  0
    3.0565    2.4224    0.0000 C   0  0  0  0  0  0  0  0  0  0  0  0
   -5.0036   -1.5664    0.0000 C   0  0  0  0  0  0  0  0  0  0  0  0
   -3.7410   -2.3761    0.0000 C   0  0  0  0  0  0  0  0  0  0  0  0
   -6.3362   -2.2550    0.0000 C   0  0  0  0  0  0  0  0  0  0  0  0
  1  2  1  0
  2  3  2  0
  3  4  1  0
  4  5  2  0
  5  6  1  0
  6  7  1  0
  7  8  1  0
  7  9  1  0
  9 10  1  0
 10 11  1  0
 11 12  1  0
 12 13  2  0
 13 14  1  0
 14 15  1  0
 15 16  2  0
 16 17  1  0
 17 18  2  0
 18 19  1  0
 18 20  1  0
 20 21  2  0
 14 22  1  0
 22 23  2  0
 23 24  1  0
 24 25  2  0
 25 26  1  0
 26 27  2  0
  5 28  1  0
 28 29  1  0
 28 30  2  0
 30  2  1  0
 27 12  1  0
 21 15  1  0
 27 22  1  0
M  END
>  <Ki>  (346) 
46.9

>  <database>  (346) 
SRSLDB

$$$$

     RDKit          2D

 38 41  0  0  0  0  0  0  0  0999 V2000
   -3.3587   -2.9032    0.0000 C   0  0  0  0  0  0  0  0  0  0  0  0
   -1.9769   -2.3195    0.0000 O   0  0  0  0  0  0  0  0  0  0  0  0
   -1.7915   -0.8310    0.0000 C   0  0  0  0  0  0  0  0  0  0  0  0
   -2.9879    0.0738    0.0000 C   0  0  0  0  0  0  0  0  0  0  0  0
   -2.8025    1.5623    0.0000 C   0  0  0  0  0  0  0  0  0  0  0  0
   -1.4207    2.1460    0.0000 C   0  0  0  0  0  0  0  0  0  0  0  0
   -1.2353    3.6345    0.0000 C   0  0  0  0  0  0  0  0  0  0  0  0
   -0.2244    1.2412    0.0000 C   0  0  0  0  0  0  0  0  0  0  0  0
   -0.4097   -0.2473    0.0000 C   0  0  0  0  0  0  0  0  0  0  0  0
    0.7866   -1.1521    0.0000 N   0  0  0  0  0  0  0  0  0  0  0  0
    2.1684   -0.5684    0.0000 C   0  0  0  0  0  0  0  0  0  0  0  0
    2.3538    0.9201    0.0000 O   0  0  0  0  0  0  0  0  0  0  0  0
    3.3648   -1.4732    0.0000 O   0  0  0  0  0  0  0  0  0  0  0  0
    4.7466   -0.8895    0.0000 C   0  0  0  0  0  0  0  0  0  0  0  0
    5.9429   -1.7943    0.0000 C   0  0  0  0  0  0  0  0  0  0  0  0
    7.3247   -1.2106    0.0000 C   0  0  0  0  0  0  0  0  0  0  0  0
    8.7065   -0.6269    0.0000 C   0  0  0  0  0  0  0  0  0  0  0  0
    8.8919    0.8616    0.0000 C   0  0  0  0  0  0  0  0  0  0  0  0
    7.6955    1.7664    0.0000 C   0  0  0  0  0  0  0  0  0  0  0  0
    6.3137    1.1827    0.0000 C   0  0  0  0  0  0  0  0  0  0  0  0
    4.9320    0.5990    0.0000 C   0  0  0  0  0  0  0  0  0  0  0  0
    6.1283   -0.3058    0.0000 N   0  0  0  0  0  0  0  0  0  0  0  0
    4.7466   -0.8895    0.0000 C   0  0  0  0  0  0  0  0  0  0  0  0
    3.5502    0.0153    0.0000 C   0  0  0  0  0  0  0  0  0  0  0  0
    2.1684   -0.5684    0.0000 C   0  0  0  0  0  0  0  0  0  0  0  0
    0.9720    0.3364    0.0000 C   0  0  0  0  0  0  0  0  0  0  0  0
   -0.4097   -0.2473    0.0000 C   0  0  0  0  0  0  0  0  0  0  0  0
   -1.6061    0.6575    0.0000 C   0  0  0  0  0  0  0  0  0  0  0  0
   -2.9879    0.0738    0.0000 N   0  0  0  0  0  0  0  0  0  0  0  0
   -4.1843    0.9786    0.0000 C   0  0  0  0  0  0  0  0  0  0  0  0
   -3.9989    2.4671    0.0000 O   0  0  0  0  0  0  0  0  0  0  0  0
   -5.5661    0.3949    0.0000 C   0  0  0  0  0  0  0  0  0  0  0  0
   -6.7624    1.2997    0.0000 C   0  0  0  0  0  0  0  0  0  0  0  0
   -8.1442    0.7160    0.0000 C   0  0  0  0  0  0  0  0  0  0  0  0
   -8.3296   -0.7725    0.0000 C   0  0  0  0  0  0  0  0  0  0  0  0
   -9.7114   -1.3562    0.0000 F   0  0  0  0  0  0  0  0  0  0  0  0
   -7.1332   -1.6773    0.0000 C   0  0  0  0  0  0  0  0  0  0  0  0
   -5.7514   -1.0936    0.0000 C   0  0  0  0  0  0  0  0  0  0  0  0
  1  2  1  0
  2  3  1  0
  3  4  2  0
  4  5  1  0
  5  6  2  0
  6  7  1  0
  6  8  1  0
  8  9  2  0
  9 10  1  0
 10 11  1  0
 11 12  2  0
 11 13  1  0
 13 14  1  0
 14 15  1  0
 15 16  1  0
 16 17  1  0
 17 18  1  0
 18 19  1  0
 19 20  1  0
 20 21  1  0
 20 22  1  0
 22 23  1  0
 23 24  1  0
 24 25  1  0
 25 26  1  0
 26 27  1  0
 27 28  1  0
 28 29  1  0
 29 30  1  0
 30 31  2  0
 30 32  1  0
 32 33  2  0
 33 34  1  0
 34 35  2  0
 35 36  1  0
 35 37  1  0
 37 38  2  0
  9  3  1  0
 21 14  1  0
 38 32  1  0
 22 16  1  0
M  END
>  <Ki>  (347) 
497.0

>  <database>  (347) 
SRSLDB

$$$$

     RDKit          2D

 20 25  0  0  0  0  0  0  0  0999 V2000
    6.5719    0.4682    0.0000 C   0  0  0  0  0  0  0  0  0  0  0  0
    6.3293   -1.0120    0.0000 C   0  0  0  0  0  0  0  0  0  0  0  0
    4.9260   -1.5421    0.0000 C   0  0  0  0  0  0  0  0  0  0  0  0
    3.7654   -0.5918    0.0000 C   0  0  0  0  0  0  0  0  0  0  0  0
    2.3622   -1.1218    0.0000 C   0  0  0  0  0  0  0  0  0  0  0  0
    1.2016   -0.1716    0.0000 C   0  0  0  0  0  0  0  0  0  0  0  0
   -0.2017   -0.7016    0.0000 N   0  0  0  0  0  0  0  0  0  0  0  0
   -1.3623    0.2486    0.0000 C   0  0  0  0  0  0  0  0  0  0  0  0
   -1.2758    1.7461    0.0000 C   0  0  0  0  0  0  0  0  0  0  0  0
   -2.1223    0.5079    0.0000 C   0  0  0  0  0  0  0  0  0  0  0  0
   -2.0794   -0.9915    0.0000 C   0  0  0  0  0  0  0  0  0  0  0  0
   -3.4921   -1.4957    0.0000 C   0  0  0  0  0  0  0  0  0  0  0  0
   -4.4082   -0.3079    0.0000 C   0  0  0  0  0  0  0  0  0  0  0  0
   -3.5616    0.9304    0.0000 C   0  0  0  0  0  0  0  0  0  0  0  0
   -3.6045    2.4298    0.0000 C   0  0  0  0  0  0  0  0  0  0  0  0
   -2.1918    2.9339    0.0000 C   0  0  0  0  0  0  0  0  0  0  0  0
   -5.5960   -1.2239    0.0000 C   0  0  0  0  0  0  0  0  0  0  0  0
   -4.6799   -2.4117    0.0000 C   0  0  0  0  0  0  0  0  0  0  0  0
    4.0080    0.8884    0.0000 N   0  0  0  0  0  0  0  0  0  0  0  0
    5.4113    1.4184    0.0000 C   0  0  0  0  0  0  0  0  0  0  0  0
  1  2  2  0
  2  3  1  0
  3  4  2  0
  4  5  1  0
  5  6  1  0
  6  7  1  0
  7  8  1  0
  8  9  1  0
  9 10  1  0
 10 11  1  0
 11 12  1  0
 12 13  1  0
 13 14  1  0
 14 15  1  0
 15 16  1  0
 16 17  1  0
 17 18  1  0
  4 19  1  0
 19 20  2  0
 20  1  1  0
 18  8  1  0
 16  9  1  0
 14 10  1  0
 18 12  1  0
 17 13  1  0
M  END
>  <ChemBL_ID>  (348) 
CHEMBL2432049

>  <Ki>  (348) 
8.6

>  <database>  (348) 
SRSLDB

$$$$

     RDKit          2D

 22 24  0  0  0  0  0  0  0  0999 V2000
    1.8603   -2.2250    0.0000 C   0  0  0  0  0  0  0  0  0  0  0  0
    1.1074   -0.9277    0.0000 C   0  0  0  0  0  0  0  0  0  0  0  0
    1.8544    0.3730    0.0000 O   0  0  0  0  0  0  0  0  0  0  0  0
    3.3544    0.3764    0.0000 C   0  0  0  0  0  0  0  0  0  0  0  0
    4.1074   -0.9209    0.0000 C   0  0  0  0  0  0  0  0  0  0  0  0
    5.6074   -0.9175    0.0000 C   0  0  0  0  0  0  0  0  0  0  0  0
    6.3544    0.3833    0.0000 C   0  0  0  0  0  0  0  0  0  0  0  0
    7.8544    0.3867    0.0000 Cl  0  0  0  0  0  0  0  0  0  0  0  0
    5.6015    1.6806    0.0000 C   0  0  0  0  0  0  0  0  0  0  0  0
    4.1015    1.6772    0.0000 C   0  0  0  0  0  0  0  0  0  0  0  0
   -0.3926   -0.9311    0.0000 C   0  0  0  0  0  0  0  0  0  0  0  0
   -1.1397   -2.2318    0.0000 O   0  0  0  0  0  0  0  0  0  0  0  0
   -1.1455    0.3662    0.0000 O   0  0  0  0  0  0  0  0  0  0  0  0
   -2.6455    0.3628    0.0000 C   0  0  0  0  0  0  0  0  0  0  0  0
   -3.3926   -0.9379    0.0000 C   0  0  0  0  0  0  0  0  0  0  0  0
   -4.8926   -0.9413    0.0000 C   0  0  0  0  0  0  0  0  0  0  0  0
   -6.3202   -0.4810    0.0000 C   0  0  0  0  0  0  0  0  0  0  0  0
   -6.3236    1.0190    0.0000 C   0  0  0  0  0  0  0  0  0  0  0  0
   -4.8981    1.4857    0.0000 C   0  0  0  0  0  0  0  0  0  0  0  0
   -3.3985    1.6602    0.0000 C   0  0  0  0  0  0  0  0  0  0  0  0
   -4.0137    0.2742    0.0000 N   0  0  0  0  0  0  0  0  0  0  0  0
   -3.2406    0.4689    0.0000 C   0  0  0  0  0  0  0  0  0  0  0  0
  1  2  1  0
  2  3  1  0
  3  4  1  0
  4  5  2  0
  5  6  1  0
  6  7  2  0
  7  8  1  0
  7  9  1  0
  9 10  2  0
  2 11  1  0
 11 12  2  0
 11 13  1  0
 13 14  1  0
 14 15  1  0
 15 16  1  0
 16 17  1  0
 17 18  1  0
 18 19  1  0
 19 20  1  0
 19 21  1  0
 21 22  1  0
 10  4  1  0
 20 14  1  0
 21 16  1  0
M  END
>  <ChemBL_ID>  (349) 
CHEMBL46194

>  <Ki>  (349) 
400.2

>  <database>  (349) 
SRSLDB

$$$$

     RDKit          2D

 30 34  0  0  0  0  0  0  0  0999 V2000
  -11.0287   -1.0121    0.0000 F   0  0  0  0  0  0  0  0  0  0  0  0
   -9.5613   -0.7008    0.0000 C   0  0  0  0  0  0  0  0  0  0  0  0
   -9.0973    0.7256    0.0000 C   0  0  0  0  0  0  0  0  0  0  0  0
   -7.6300    1.0370    0.0000 C   0  0  0  0  0  0  0  0  0  0  0  0
   -6.6267   -0.0781    0.0000 C   0  0  0  0  0  0  0  0  0  0  0  0
   -5.1593    0.2332    0.0000 C   0  0  0  0  0  0  0  0  0  0  0  0
   -4.1560   -0.8818    0.0000 C   0  0  0  0  0  0  0  0  0  0  0  0
   -2.6887   -0.5705    0.0000 C   0  0  0  0  0  0  0  0  0  0  0  0
   -2.2247    0.8559    0.0000 N   0  0  0  0  0  0  0  0  0  0  0  0
   -0.7573    1.1673    0.0000 C   0  0  0  0  0  0  0  0  0  0  0  0
    0.2460    0.0522    0.0000 C   0  0  0  0  0  0  0  0  0  0  0  0
    1.7133    0.3635    0.0000 C   0  0  0  0  0  0  0  0  0  0  0  0
    2.7166   -0.7515    0.0000 C   0  0  0  0  0  0  0  0  0  0  0  0
    4.1839   -0.4402    0.0000 N   0  0  0  0  0  0  0  0  0  0  0  0
    5.2983   -1.4443    0.0000 C   0  0  0  0  0  0  0  0  0  0  0  0
    5.2977   -2.9443    0.0000 C   0  0  0  0  0  0  0  0  0  0  0  0
    6.5965   -3.6948    0.0000 C   0  0  0  0  0  0  0  0  0  0  0  0
    7.8958   -2.9452    0.0000 C   0  0  0  0  0  0  0  0  0  0  0  0
    7.8964   -1.4452    0.0000 C   0  0  0  0  0  0  0  0  0  0  0  0
    6.5976   -0.6948    0.0000 C   0  0  0  0  0  0  0  0  0  0  0  0
    6.2863    0.7726    0.0000 C   0  0  0  0  0  0  0  0  0  0  0  0
    7.1684    1.9858    0.0000 C   0  0  0  0  0  0  0  0  0  0  0  0
    6.5587    3.3563    0.0000 C   0  0  0  0  0  0  0  0  0  0  0  0
    5.0670    3.5136    0.0000 C   0  0  0  0  0  0  0  0  0  0  0  0
    4.1849    2.3004    0.0000 C   0  0  0  0  0  0  0  0  0  0  0  0
    4.7945    0.9299    0.0000 C   0  0  0  0  0  0  0  0  0  0  0  0
   -3.2280    1.9710    0.0000 C   0  0  0  0  0  0  0  0  0  0  0  0
   -4.6953    1.6597    0.0000 C   0  0  0  0  0  0  0  0  0  0  0  0
   -7.0907   -1.5045    0.0000 C   0  0  0  0  0  0  0  0  0  0  0  0
   -8.5580   -1.8159    0.0000 C   0  0  0  0  0  0  0  0  0  0  0  0
  1  2  1  0
  2  3  2  0
  3  4  1  0
  4  5  2  0
  5  6  1  0
  6  7  1  0
  7  8  1  0
  8  9  1  0
  9 10  1  0
 10 11  1  0
 11 12  1  0
 12 13  1  0
 13 14  1  0
 14 15  1  0
 15 16  2  0
 16 17  1  0
 17 18  2  0
 18 19  1  0
 19 20  2  0
 20 21  1  0
 21 22  2  0
 22 23  1  0
 23 24  2  0
 24 25  1  0
 25 26  2  0
  9 27  1  0
 27 28  1  0
  5 29  1  0
 29 30  2  0
 30  2  1  0
 28  6  1  0
 26 14  1  0
 20 15  1  0
 26 21  1  0
M  END
>  <Ki>  (350) 
11.7

>  <database>  (350) 
SRSLDB

$$$$

     RDKit          2D

 33 37  0  0  0  0  0  0  0  0999 V2000
   -8.8478   -2.1563    0.0000 C   0  0  0  0  0  0  0  0  0  0  0  0
   -7.4436   -2.6838    0.0000 O   0  0  0  0  0  0  0  0  0  0  0  0
   -6.2847   -1.7315    0.0000 C   0  0  0  0  0  0  0  0  0  0  0  0
   -6.5299   -0.2517    0.0000 C   0  0  0  0  0  0  0  0  0  0  0  0
   -5.3710    0.7006    0.0000 C   0  0  0  0  0  0  0  0  0  0  0  0
   -3.9668    0.1731    0.0000 C   0  0  0  0  0  0  0  0  0  0  0  0
   -3.7215   -1.3067    0.0000 C   0  0  0  0  0  0  0  0  0  0  0  0
   -4.8805   -2.2590    0.0000 C   0  0  0  0  0  0  0  0  0  0  0  0
   -4.6352   -3.7388    0.0000 O   0  0  0  0  0  0  0  0  0  0  0  0
   -3.2310   -4.2663    0.0000 C   0  0  0  0  0  0  0  0  0  0  0  0
   -2.8079    1.1255    0.0000 C   0  0  0  0  0  0  0  0  0  0  0  0
   -3.0531    2.6053    0.0000 N   0  0  0  0  0  0  0  0  0  0  0  0
   -1.8942    3.5576    0.0000 C   0  0  0  0  0  0  0  0  0  0  0  0
   -0.4900    3.0301    0.0000 C   0  0  0  0  0  0  0  0  0  0  0  0
   -0.2448    1.5503    0.0000 C   0  0  0  0  0  0  0  0  0  0  0  0
    1.1594    1.0228    0.0000 C   0  0  0  0  0  0  0  0  0  0  0  0
    2.3183    1.9751    0.0000 N   0  0  0  0  0  0  0  0  0  0  0  0
    3.7225    1.4476    0.0000 C   0  0  0  0  0  0  0  0  0  0  0  0
    4.8814    2.3999    0.0000 O   0  0  0  0  0  0  0  0  0  0  0  0
    3.9678   -0.0322    0.0000 C   0  0  0  0  0  0  0  0  0  0  0  0
    2.9148   -1.1005    0.0000 C   0  0  0  0  0  0  0  0  0  0  0  0
    3.6053   -2.4321    0.0000 N   0  0  0  0  0  0  0  0  0  0  0  0
    5.0851   -2.1868    0.0000 C   0  0  0  0  0  0  0  0  0  0  0  0
    6.2576   -3.1224    0.0000 C   0  0  0  0  0  0  0  0  0  0  0  0
    7.6540   -2.5748    0.0000 C   0  0  0  0  0  0  0  0  0  0  0  0
    7.8781   -1.0917    0.0000 C   0  0  0  0  0  0  0  0  0  0  0  0
    9.2746   -0.5441    0.0000 Br  0  0  0  0  0  0  0  0  0  0  0  0
    6.7056   -0.1561    0.0000 C   0  0  0  0  0  0  0  0  0  0  0  0
    5.3091   -0.7036    0.0000 C   0  0  0  0  0  0  0  0  0  0  0  0
    2.0731    3.4549    0.0000 C   0  0  0  0  0  0  0  0  0  0  0  0
    0.6689    3.9824    0.0000 C   0  0  0  0  0  0  0  0  0  0  0  0
   -4.4573    3.1328    0.0000 C   0  0  0  0  0  0  0  0  0  0  0  0
   -5.6163    2.1805    0.0000 C   0  0  0  0  0  0  0  0  0  0  0  0
  1  2  1  0
  2  3  1  0
  3  4  2  0
  4  5  1  0
  5  6  2  0
  6  7  1  0
  7  8  2  0
  8  9  1  0
  9 10  1  0
  6 11  1  0
 11 12  1  0
 12 13  1  0
 13 14  1  0
 14 15  1  0
 15 16  1  0
 16 17  1  0
 17 18  1  0
 18 19  2  0
 18 20  1  0
 20 21  2  0
 21 22  1  0
 22 23  1  0
 23 24  2  0
 24 25  1  0
 25 26  2  0
 26 27  1  0
 26 28  1  0
 28 29  2  0
 17 30  1  0
 30 31  1  0
 12 32  1  0
 32 33  1  0
  8  3  1  0
 31 14  1  0
 33  5  1  0
 29 20  1  0
 29 23  1  0
M  END
>  <Ki>  (351) 
160.0

>  <database>  (351) 
SRSLDB

$$$$

     RDKit          2D

 44 49  0  0  0  0  0  0  0  0999 V2000
  -15.6721   -0.3511    0.0000 O   0  0  0  0  0  0  0  0  0  0  0  0
  -14.4731   -1.2524    0.0000 N   0  0  0  0  0  4  0  0  0  0  0  0
  -14.6542   -2.7415    0.0000 O   0  0  0  0  0  1  0  0  0  0  0  0
  -13.0930   -0.6648    0.0000 C   0  0  0  0  0  0  0  0  0  0  0  0
  -11.8940   -1.5661    0.0000 C   0  0  0  0  0  0  0  0  0  0  0  0
  -10.5140   -0.9785    0.0000 C   0  0  0  0  0  0  0  0  0  0  0  0
  -10.3328    0.5106    0.0000 C   0  0  0  0  0  0  0  0  0  0  0  0
   -8.9527    1.0982    0.0000 N   0  0  0  0  0  0  0  0  0  0  0  0
   -7.7538    0.1969    0.0000 C   0  0  0  0  0  0  0  0  0  0  0  0
   -6.3737    0.7845    0.0000 C   0  0  0  0  0  0  0  0  0  0  0  0
   -5.1747   -0.1168    0.0000 O   0  0  0  0  0  0  0  0  0  0  0  0
   -3.7946    0.4708    0.0000 C   0  0  0  0  0  0  0  0  0  0  0  0
   -2.5956   -0.4305    0.0000 C   0  0  0  0  0  0  0  0  0  0  0  0
   -1.2155    0.1571    0.0000 O   0  0  0  0  0  0  0  0  0  0  0  0
   -0.0166   -0.7442    0.0000 C   0  0  0  0  0  0  0  0  0  0  0  0
   -0.1977   -2.2333    0.0000 C   0  0  0  0  0  0  0  0  0  0  0  0
    1.0013   -3.1346    0.0000 C   0  0  0  0  0  0  0  0  0  0  0  0
    2.3814   -2.5470    0.0000 C   0  0  0  0  0  0  0  0  0  0  0  0
    2.5625   -1.0579    0.0000 C   0  0  0  0  0  0  0  0  0  0  0  0
    1.3635   -0.1566    0.0000 C   0  0  0  0  0  0  0  0  0  0  0  0
    1.5446    1.3324    0.0000 C   0  0  0  0  0  0  0  0  0  0  0  0
    2.9247    1.9201    0.0000 C   0  0  0  0  0  0  0  0  0  0  0  0
    4.1237    1.0187    0.0000 C   0  0  0  0  0  0  0  0  0  0  0  0
    3.9426   -0.4703    0.0000 C   0  0  0  0  0  0  0  0  0  0  0  0
    5.1416   -1.3716    0.0000 C   0  0  0  0  0  0  0  0  0  0  0  0
    6.5217   -0.7840    0.0000 C   0  0  0  0  0  0  0  0  0  0  0  0
    7.7206   -1.6853    0.0000 C   0  0  0  0  0  0  0  0  0  0  0  0
    9.1007   -1.0977    0.0000 N   0  0  0  0  0  0  0  0  0  0  0  0
   10.2997   -1.9990    0.0000 C   0  0  0  0  0  0  0  0  0  0  0  0
   11.6798   -1.4114    0.0000 C   0  0  0  0  0  0  0  0  0  0  0  0
   11.8609    0.0776    0.0000 N   0  0  0  0  0  0  0  0  0  0  0  0
   13.2410    0.6653    0.0000 C   0  0  0  0  0  0  0  0  0  0  0  0
   14.4400   -0.2361    0.0000 C   0  0  0  0  0  0  0  0  0  0  0  0
   15.8201    0.3516    0.0000 C   0  0  0  0  0  0  0  0  0  0  0  0
   16.0012    1.8406    0.0000 C   0  0  0  0  0  0  0  0  0  0  0  0
   14.8022    2.7420    0.0000 C   0  0  0  0  0  0  0  0  0  0  0  0
   13.4221    2.1543    0.0000 C   0  0  0  0  0  0  0  0  0  0  0  0
   10.6619    0.9790    0.0000 C   0  0  0  0  0  0  0  0  0  0  0  0
    9.2818    0.3913    0.0000 C   0  0  0  0  0  0  0  0  0  0  0  0
  -11.5318    1.4119    0.0000 C   0  0  0  0  0  0  0  0  0  0  0  0
  -11.6642    2.9061    0.0000 N   0  0  0  0  0  0  0  0  0  0  0  0
  -13.1262    3.2418    0.0000 O   0  0  0  0  0  0  0  0  0  0  0  0
  -13.8973    1.9552    0.0000 N   0  0  0  0  0  0  0  0  0  0  0  0
  -12.9119    0.8243    0.0000 C   0  0  0  0  0  0  0  0  0  0  0  0
  1  2  2  0
  2  3  1  0
  2  4  1  0
  4  5  2  0
  5  6  1  0
  6  7  2  0
  7  8  1  0
  8  9  1  0
  9 10  1  0
 10 11  1  0
 11 12  1  0
 12 13  1  0
 13 14  1  0
 14 15  1  0
 15 16  2  0
 16 17  1  0
 17 18  2  0
 18 19  1  0
 19 20  2  0
 20 21  1  0
 21 22  1  0
 22 23  1  0
 23 24  1  0
 24 25  1  0
 25 26  1  0
 26 27  1  0
 27 28  1  0
 28 29  1  0
 29 30  1  0
 30 31  1  0
 31 32  1  0
 32 33  1  0
 33 34  1  0
 34 35  1  0
 35 36  1  0
 36 37  1  0
 31 38  1  0
 38 39  1  0
  7 40  1  0
 40 41  2  0
 41 42  1  0
 42 43  1  0
 43 44  2  0
 44  4  1  0
 20 15  1  0
 39 28  1  0
 44 40  1  0
 24 19  1  0
 37 32  1  0
M  CHG  2   2   1   3  -1
M  END
>  <ChemBL_ID>  (352) 
CHEMBL1822598

>  <Ki>  (352) 
39.3

>  <database>  (352) 
SRSLDB

$$$$

     RDKit          2D

 26 29  0  0  0  0  0  0  0  0999 V2000
    5.3422   -3.6662    0.0000 O   0  0  0  0  0  0  0  0  0  0  0  0
    5.6027   -2.1890    0.0000 C   0  0  0  0  0  0  0  0  0  0  0  0
    6.9510   -1.5315    0.0000 O   0  0  0  0  0  0  0  0  0  0  0  0
    6.7423   -0.0461    0.0000 C   0  0  0  0  0  0  0  0  0  0  0  0
    7.7065    1.1029    0.0000 C   0  0  0  0  0  0  0  0  0  0  0  0
    7.1936    2.5125    0.0000 C   0  0  0  0  0  0  0  0  0  0  0  0
    5.7164    2.7730    0.0000 C   0  0  0  0  0  0  0  0  0  0  0  0
    4.7522    1.6240    0.0000 C   0  0  0  0  0  0  0  0  0  0  0  0
    5.2651    0.2145    0.0000 C   0  0  0  0  0  0  0  0  0  0  0  0
    4.5608   -1.1099    0.0000 N   0  0  0  0  0  0  0  0  0  0  0  0
    3.0754   -1.3186    0.0000 C   0  0  0  0  0  0  0  0  0  0  0  0
    2.1520   -0.1365    0.0000 C   0  0  0  0  0  0  0  0  0  0  0  0
    0.6666   -0.3452    0.0000 C   0  0  0  0  0  0  0  0  0  0  0  0
   -0.2569    0.8369    0.0000 C   0  0  0  0  0  0  0  0  0  0  0  0
   -1.7423    0.6283    0.0000 N   0  0  0  0  0  0  0  0  0  0  0  0
   -2.6657    1.8103    0.0000 C   0  0  0  0  0  0  0  0  0  0  0  0
   -4.1511    1.6017    0.0000 C   0  0  0  0  0  0  0  0  0  0  0  0
   -4.7131    0.2109    0.0000 N   0  0  0  0  0  0  0  0  0  0  0  0
   -6.1985    0.0023    0.0000 C   0  0  0  0  0  0  0  0  0  0  0  0
   -7.1219    1.1843    0.0000 C   0  0  0  0  0  0  0  0  0  0  0  0
   -8.6074    0.9757    0.0000 C   0  0  0  0  0  0  0  0  0  0  0  0
   -9.1694   -0.4151    0.0000 C   0  0  0  0  0  0  0  0  0  0  0  0
   -8.2459   -1.5971    0.0000 C   0  0  0  0  0  0  0  0  0  0  0  0
   -6.7605   -1.3885    0.0000 N   0  0  0  0  0  0  0  0  0  0  0  0
   -3.7897   -0.9712    0.0000 C   0  0  0  0  0  0  0  0  0  0  0  0
   -2.3043   -0.7625    0.0000 C   0  0  0  0  0  0  0  0  0  0  0  0
  1  2  2  0
  2  3  1  0
  3  4  1  0
  4  5  2  0
  5  6  1  0
  6  7  2  0
  7  8  1  0
  8  9  2  0
  9 10  1  0
 10 11  1  0
 11 12  1  0
 12 13  1  0
 13 14  1  0
 14 15  1  0
 15 16  1  0
 16 17  1  0
 17 18  1  0
 18 19  1  0
 19 20  2  0
 20 21  1  0
 21 22  2  0
 22 23  1  0
 23 24  2  0
 18 25  1  0
 25 26  1  0
 10  2  1  0
 26 15  1  0
  9  4  1  0
 24 19  1  0
M  END
>  <Ki>  (353) 
128.1

>  <database>  (353) 
SRSLDB

$$$$

     RDKit          2D

 30 33  0  0  0  0  0  0  0  0999 V2000
   -3.4086   -4.8347    0.0000 C   0  0  0  0  0  0  0  0  0  0  0  0
   -2.6953   -3.5152    0.0000 O   0  0  0  0  0  0  0  0  0  0  0  0
   -3.4815   -2.2377    0.0000 C   0  0  0  0  0  0  0  0  0  0  0  0
   -4.9809   -2.2797    0.0000 C   0  0  0  0  0  0  0  0  0  0  0  0
   -5.7670   -1.0022    0.0000 C   0  0  0  0  0  0  0  0  0  0  0  0
   -7.2664   -1.0443    0.0000 Br  0  0  0  0  0  0  0  0  0  0  0  0
   -5.0537    0.3173    0.0000 C   0  0  0  0  0  0  0  0  0  0  0  0
   -3.5543    0.3594    0.0000 C   0  0  0  0  0  0  0  0  0  0  0  0
   -2.8410    1.6790    0.0000 C   0  0  0  0  0  0  0  0  0  0  0  0
   -3.4893    3.0316    0.0000 N   0  0  0  0  0  0  0  0  0  0  0  0
   -2.4032    4.0662    0.0000 C   0  0  0  0  0  0  0  0  0  0  0  0
   -1.0836    3.3529    0.0000 C   0  0  0  0  0  0  0  0  0  0  0  0
    0.2690    4.0012    0.0000 C   0  0  0  0  0  0  0  0  0  0  0  0
    1.5068    3.1539    0.0000 N   0  0  0  0  0  0  0  0  0  0  0  0
    1.3919    1.6583    0.0000 C   0  0  0  0  0  0  0  0  0  0  0  0
    2.6297    0.8110    0.0000 C   0  0  0  0  0  0  0  0  0  0  0  0
    3.9824    1.4593    0.0000 C   0  0  0  0  0  0  0  0  0  0  0  0
    5.2201    0.6120    0.0000 C   0  0  0  0  0  0  0  0  0  0  0  0
    5.1052   -0.8836    0.0000 C   0  0  0  0  0  0  0  0  0  0  0  0
    3.7526   -1.5319    0.0000 C   0  0  0  0  0  0  0  0  0  0  0  0
    3.6377   -3.0275    0.0000 C   0  0  0  0  0  0  0  0  0  0  0  0
    4.8754   -3.8748    0.0000 C   0  0  0  0  0  0  0  0  0  0  0  0
    6.2281   -3.2265    0.0000 C   0  0  0  0  0  0  0  0  0  0  0  0
    6.3430   -1.7309    0.0000 C   0  0  0  0  0  0  0  0  0  0  0  0
    4.0973    2.9549    0.0000 C   0  0  0  0  0  0  0  0  0  0  0  0
    2.8595    3.8022    0.0000 C   0  0  0  0  0  0  0  0  0  0  0  0
   -1.3542    1.8775    0.0000 N   0  0  0  0  0  0  0  0  0  0  0  0
   -2.7682   -0.9181    0.0000 C   0  0  0  0  0  0  0  0  0  0  0  0
   -1.2688   -0.8760    0.0000 O   0  0  0  0  0  0  0  0  0  0  0  0
   -0.4826   -2.1535    0.0000 C   0  0  0  0  0  0  0  0  0  0  0  0
  1  2  1  0
  2  3  1  0
  3  4  2  0
  4  5  1  0
  5  6  1  0
  5  7  2  0
  7  8  1  0
  8  9  1  0
  9 10  2  0
 10 11  1  0
 11 12  2  0
 12 13  1  0
 13 14  1  0
 14 15  1  0
 15 16  1  0
 16 17  1  0
 17 18  1  0
 18 19  1  0
 19 20  2  0
 20 21  1  0
 21 22  2  0
 22 23  1  0
 23 24  2  0
 17 25  1  0
 25 26  1  0
 12 27  1  0
  8 28  2  0
 28 29  1  0
 29 30  1  0
 28  3  1  0
 27  9  1  0
 26 14  1  0
 24 19  1  0
M  END
>  <Ki>  (354) 
412.0

>  <database>  (354) 
SRSLDB

$$$$

     RDKit          2D

 39 43  0  0  0  0  0  0  0  0999 V2000
  -16.4497    2.6596    0.0000 F   0  0  0  0  0  0  0  0  0  0  0  0
  -14.9498    2.6454    0.0000 C   0  0  0  0  0  0  0  0  0  0  0  0
  -14.2121    1.3393    0.0000 C   0  0  0  0  0  0  0  0  0  0  0  0
  -12.7122    1.3251    0.0000 O   0  0  0  0  0  0  0  0  0  0  0  0
  -11.9745    0.0191    0.0000 C   0  0  0  0  0  0  0  0  0  0  0  0
  -10.4746    0.0049    0.0000 C   0  0  0  0  0  0  0  0  0  0  0  0
   -9.7369   -1.3012    0.0000 O   0  0  0  0  0  0  0  0  0  0  0  0
   -8.2370   -1.3154    0.0000 C   0  0  0  0  0  0  0  0  0  0  0  0
   -7.4747   -0.0235    0.0000 C   0  0  0  0  0  0  0  0  0  0  0  0
   -5.9748   -0.0377    0.0000 C   0  0  0  0  0  0  0  0  0  0  0  0
   -5.2371   -1.3438    0.0000 C   0  0  0  0  0  0  0  0  0  0  0  0
   -3.7372   -1.3580    0.0000 N   0  0  0  0  0  0  0  0  0  0  0  0
   -2.9995   -2.6640    0.0000 C   0  0  0  0  0  0  0  0  0  0  0  0
   -1.4996   -2.6782    0.0000 C   0  0  0  0  0  0  0  0  0  0  0  0
   -0.7373   -1.3863    0.0000 N   0  0  0  0  0  0  0  0  0  0  0  0
    0.7626   -1.4005    0.0000 C   0  0  0  0  0  0  0  0  0  0  0  0
    1.5249   -0.1086    0.0000 C   0  0  0  0  0  0  0  0  0  0  0  0
    3.0248   -0.1228    0.0000 C   0  0  0  0  0  0  0  0  0  0  0  0
    3.7871    1.1691    0.0000 C   0  0  0  0  0  0  0  0  0  0  0  0
    5.2870    1.1549    0.0000 C   0  0  0  0  0  0  0  0  0  0  0  0
    6.1572   -0.0669    0.0000 C   0  0  0  0  0  0  0  0  0  0  0  0
    7.5881    0.3831    0.0000 N   0  0  0  0  0  0  0  0  0  0  0  0
    8.7932   -0.5100    0.0000 C   0  0  0  0  0  0  0  0  0  0  0  0
    8.6223   -2.0003    0.0000 C   0  0  0  0  0  0  0  0  0  0  0  0
    9.8274   -2.8934    0.0000 C   0  0  0  0  0  0  0  0  0  0  0  0
   11.2035   -2.2963    0.0000 C   0  0  0  0  0  0  0  0  0  0  0  0
   12.4086   -3.1894    0.0000 F   0  0  0  0  0  0  0  0  0  0  0  0
   11.3743   -0.8060    0.0000 C   0  0  0  0  0  0  0  0  0  0  0  0
   10.1692    0.0871    0.0000 C   0  0  0  0  0  0  0  0  0  0  0  0
    7.6022    1.8830    0.0000 C   0  0  0  0  0  0  0  0  0  0  0  0
    8.7264    2.8761    0.0000 C   0  0  0  0  0  0  0  0  0  0  0  0
    8.4284    4.3462    0.0000 C   0  0  0  0  0  0  0  0  0  0  0  0
    7.0063    4.8232    0.0000 C   0  0  0  0  0  0  0  0  0  0  0  0
    5.8821    3.8301    0.0000 C   0  0  0  0  0  0  0  0  0  0  0  0
    6.1801    2.3600    0.0000 C   0  0  0  0  0  0  0  0  0  0  0  0
   -1.4750   -0.0803    0.0000 C   0  0  0  0  0  0  0  0  0  0  0  0
   -2.9749   -0.0661    0.0000 C   0  0  0  0  0  0  0  0  0  0  0  0
   -5.9994   -2.6357    0.0000 C   0  0  0  0  0  0  0  0  0  0  0  0
   -7.4993   -2.6215    0.0000 C   0  0  0  0  0  0  0  0  0  0  0  0
  1  2  1  0
  2  3  1  0
  3  4  1  0
  4  5  1  0
  5  6  1  0
  6  7  1  0
  7  8  1  0
  8  9  2  0
  9 10  1  0
 10 11  2  0
 11 12  1  0
 12 13  1  0
 13 14  1  0
 14 15  1  0
 15 16  1  0
 16 17  1  0
 17 18  1  0
 18 19  1  0
 19 20  1  0
 20 21  2  0
 21 22  1  0
 22 23  1  0
 23 24  2  0
 24 25  1  0
 25 26  2  0
 26 27  1  0
 26 28  1  0
 28 29  2  0
 22 30  1  0
 30 31  2  0
 31 32  1  0
 32 33  2  0
 33 34  1  0
 34 35  2  0
 15 36  1  0
 36 37  1  0
 11 38  1  0
 38 39  2  0
 39  8  1  0
 37 12  1  0
 35 20  1  0
 29 23  1  0
 35 30  1  0
M  END
>  <Ki>  (355) 
458.0

>  <database>  (355) 
SRSLDB

$$$$

     RDKit          2D

 30 33  0  0  0  0  0  0  0  0999 V2000
  -11.6948   -1.6456    0.0000 C   0  0  0  0  0  0  0  0  0  0  0  0
  -10.2463   -2.0351    0.0000 O   0  0  0  0  0  0  0  0  0  0  0  0
   -9.1847   -0.9754    0.0000 C   0  0  0  0  0  0  0  0  0  0  0  0
   -9.5717    0.4739    0.0000 C   0  0  0  0  0  0  0  0  0  0  0  0
   -8.5101    1.5336    0.0000 C   0  0  0  0  0  0  0  0  0  0  0  0
   -7.0615    1.1441    0.0000 C   0  0  0  0  0  0  0  0  0  0  0  0
   -6.6746   -0.3051    0.0000 C   0  0  0  0  0  0  0  0  0  0  0  0
   -5.2260   -0.6946    0.0000 C   0  0  0  0  0  0  0  0  0  0  0  0
   -4.1644    0.3651    0.0000 N   0  0  0  0  0  0  0  0  0  0  0  0
   -2.7159   -0.0243    0.0000 C   0  0  0  0  0  0  0  0  0  0  0  0
   -1.6543    1.0354    0.0000 C   0  0  0  0  0  0  0  0  0  0  0  0
   -0.2058    0.6459    0.0000 C   0  0  0  0  0  0  0  0  0  0  0  0
    0.8558    1.7057    0.0000 C   0  0  0  0  0  0  0  0  0  0  0  0
    2.3044    1.3162    0.0000 C   0  0  0  0  0  0  0  0  0  0  0  0
    2.8407   -0.0847    0.0000 C   0  0  0  0  0  0  0  0  0  0  0  0
    4.3387   -0.0074    0.0000 N   0  0  0  0  0  0  0  0  0  0  0  0
    5.2817   -1.1740    0.0000 C   0  0  0  0  0  0  0  0  0  0  0  0
    4.7429   -2.5739    0.0000 C   0  0  0  0  0  0  0  0  0  0  0  0
    5.6859   -3.7404    0.0000 C   0  0  0  0  0  0  0  0  0  0  0  0
    7.1676   -3.5071    0.0000 C   0  0  0  0  0  0  0  0  0  0  0  0
    8.1106   -4.6736    0.0000 F   0  0  0  0  0  0  0  0  0  0  0  0
    7.7064   -2.1071    0.0000 C   0  0  0  0  0  0  0  0  0  0  0  0
    6.7634   -0.9406    0.0000 C   0  0  0  0  0  0  0  0  0  0  0  0
    4.7282    1.4411    0.0000 C   0  0  0  0  0  0  0  0  0  0  0  0
    6.0653    2.1209    0.0000 C   0  0  0  0  0  0  0  0  0  0  0  0
    6.1451    3.6188    0.0000 C   0  0  0  0  0  0  0  0  0  0  0  0
    4.8878    4.4369    0.0000 C   0  0  0  0  0  0  0  0  0  0  0  0
    3.5507    3.7570    0.0000 C   0  0  0  0  0  0  0  0  0  0  0  0
    3.4709    2.2592    0.0000 C   0  0  0  0  0  0  0  0  0  0  0  0
   -7.7361   -1.3649    0.0000 C   0  0  0  0  0  0  0  0  0  0  0  0
  1  2  1  0
  2  3  1  0
  3  4  2  0
  4  5  1  0
  5  6  2  0
  6  7  1  0
  7  8  1  0
  8  9  1  0
  9 10  1  0
 10 11  1  0
 11 12  1  0
 12 13  1  0
 13 14  1  0
 14 15  2  0
 15 16  1  0
 16 17  1  0
 17 18  2  0
 18 19  1  0
 19 20  2  0
 20 21  1  0
 20 22  1  0
 22 23  2  0
 16 24  1  0
 24 25  2  0
 25 26  1  0
 26 27  2  0
 27 28  1  0
 28 29  2  0
  7 30  2  0
 30  3  1  0
 29 14  1  0
 23 17  1  0
 29 24  1  0
M  END
>  <Ki>  (356) 
227.0

>  <database>  (356) 
SRSLDB

$$$$

     RDKit          2D

 23 27  0  0  0  0  0  0  0  0999 V2000
   -5.6224    1.6650    0.0000 O   0  0  0  0  0  0  0  0  0  0  0  0
   -4.5792    0.5871    0.0000 C   0  0  0  0  0  0  0  0  0  0  0  0
   -3.1242    0.9515    0.0000 C   0  0  0  0  0  0  0  0  0  0  0  0
   -2.5126   -0.4181    0.0000 C   0  0  0  0  0  0  0  0  0  0  0  0
   -3.3930   -1.6326    0.0000 C   0  0  0  0  0  0  0  0  0  0  0  0
   -2.7814   -3.0023    0.0000 C   0  0  0  0  0  0  0  0  0  0  0  0
   -1.2895   -3.1575    0.0000 C   0  0  0  0  0  0  0  0  0  0  0  0
   -0.4091   -1.9430    0.0000 C   0  0  0  0  0  0  0  0  0  0  0  0
   -1.0206   -0.5733    0.0000 C   0  0  0  0  0  0  0  0  0  0  0  0
   -3.2304    2.4478    0.0000 C   0  0  0  0  0  0  0  0  0  0  0  0
   -1.8815    1.7916    0.0000 C   0  0  0  0  0  0  0  0  0  0  0  0
   -0.3853    1.8979    0.0000 C   0  0  0  0  0  0  0  0  0  0  0  0
    0.4549    0.6552    0.0000 N   0  0  0  0  0  0  0  0  0  0  0  0
    1.9511    0.7614    0.0000 C   0  0  0  0  0  0  0  0  0  0  0  0
    2.7912   -0.4812    0.0000 C   0  0  0  0  0  0  0  0  0  0  0  0
    4.2874   -0.3750    0.0000 C   0  0  0  0  0  0  0  0  0  0  0  0
    4.9436    0.9739    0.0000 C   0  0  0  0  0  0  0  0  0  0  0  0
    4.1034    2.2166    0.0000 C   0  0  0  0  0  0  0  0  0  0  0  0
    2.0289   -0.3339    0.0000 C   0  0  0  0  0  0  0  0  0  0  0  0
    2.1351   -1.8301    0.0000 C   0  0  0  0  0  0  0  0  0  0  0  0
    3.6313   -1.7239    0.0000 C   0  0  0  0  0  0  0  0  0  0  0  0
    1.2950   -0.5874    0.0000 C   0  0  0  0  0  0  0  0  0  0  0  0
    2.6072    2.1103    0.0000 C   0  0  0  0  0  0  0  0  0  0  0  0
  1  2  1  0
  2  3  1  0
  3  4  1  0
  4  5  2  0
  5  6  1  0
  6  7  2  0
  7  8  1  0
  8  9  2  0
  3 10  1  0
 10 11  1  0
 11 12  1  0
 12 13  1  0
 13 14  1  0
 14 15  1  0
 15 16  1  0
 16 17  1  0
 17 18  1  0
 18 19  1  0
 19 20  1  0
 20 21  1  0
 20 22  1  0
 18 23  1  0
 11  3  1  0
 22 14  1  0
  9  4  1  0
 23 14  1  0
 21 16  1  0
M  END
>  <Ki>  (357) 
2.22

>  <database>  (357) 
SRSLDB

$$$$

     RDKit          2D

 23 29  0  0  0  0  0  0  0  0999 V2000
    2.2509    3.1652    0.0000 O   0  0  0  0  0  0  0  0  0  0  0  0
    2.0356    1.6807    0.0000 C   0  0  0  0  0  0  0  0  0  0  0  0
    3.5140    1.9347    0.0000 C   0  0  0  0  0  0  0  0  0  0  0  0
    5.9399   -0.2447    0.0000 C   0  0  0  0  0  0  0  0  0  0  0  0
    6.1939   -1.7230    0.0000 C   0  0  0  0  0  0  0  0  0  0  0  0
    4.8664   -2.4214    0.0000 C   0  0  0  0  0  0  0  0  0  0  0  0
    3.7919   -1.3747    0.0000 C   0  0  0  0  0  0  0  0  0  0  0  0
    4.4554   -0.0294    0.0000 C   0  0  0  0  0  0  0  0  0  0  0  0
    3.1101    0.6340    0.0000 C   0  0  0  0  0  0  0  0  0  0  0  0
    2.4466   -0.7113    0.0000 C   0  0  0  0  0  0  0  0  0  0  0  0
    0.9622   -0.4960    0.0000 C   0  0  0  0  0  0  0  0  0  0  0  0
    5.3486   -1.0010    0.0000 C   0  0  0  0  0  0  0  0  0  0  0  0
    0.7081    0.9823    0.0000 N   0  0  0  0  0  0  0  0  0  0  0  0
   -0.6372    1.6458    0.0000 C   0  0  0  0  0  0  0  0  0  0  0  0
   -1.8844    0.8124    0.0000 C   0  0  0  0  0  0  0  0  0  0  0  0
   -3.2297    1.4758    0.0000 C   0  0  0  0  0  0  0  0  0  0  0  0
   -4.4769    0.6425    0.0000 C   0  0  0  0  0  0  0  0  0  0  0  0
   -5.8222    1.3059    0.0000 C   0  0  0  0  0  0  0  0  0  0  0  0
   -7.0694    0.4726    0.0000 C   0  0  0  0  0  0  0  0  0  0  0  0
   -6.9713   -1.0242    0.0000 C   0  0  0  0  0  0  0  0  0  0  0  0
   -5.6260   -1.6876    0.0000 C   0  0  0  0  0  0  0  0  0  0  0  0
   -5.5279   -3.1844    0.0000 F   0  0  0  0  0  0  0  0  0  0  0  0
   -4.3788   -0.8543    0.0000 C   0  0  0  0  0  0  0  0  0  0  0  0
  1  2  1  0
  2  3  1  0
  3  4  1  0
  4  5  1  0
  5  6  1  0
  6  7  1  0
  7  8  1  0
  8  9  1  0
  9 10  1  0
 10 11  1  0
 11 12  1  0
 11 13  1  0
 13 14  1  0
 14 15  1  0
 15 16  1  0
 16 17  1  0
 17 18  2  0
 18 19  1  0
 19 20  2  0
 20 21  1  0
 21 22  1  0
 21 23  2  0
  9  2  1  0
 23 17  1  0
 13  2  1  0
 12  3  1  0
  8  4  1  0
 12  6  1  0
 10  7  1  0
M  END
>  <ChemBL_ID>  (358) 
CHEMBL2205820

>  <Ki>  (358) 
6.3

>  <database>  (358) 
SRSLDB

$$$$

     RDKit          2D

 33 37  0  0  0  0  0  0  0  0999 V2000
    2.6220    1.5207    0.0000 O   0  0  0  0  0  0  0  0  0  0  0  0
    3.2436    0.1555    0.0000 C   0  0  0  0  0  0  0  0  0  0  0  0
    2.5046   -1.1498    0.0000 N   0  0  0  0  0  0  0  0  0  0  0  0
    1.0142   -1.3191    0.0000 C   0  0  0  0  0  0  0  0  0  0  0  0
    0.1223   -0.1130    0.0000 C   0  0  0  0  0  0  0  0  0  0  0  0
   -1.3681   -0.2824    0.0000 C   0  0  0  0  0  0  0  0  0  0  0  0
   -2.2600    0.9237    0.0000 C   0  0  0  0  0  0  0  0  0  0  0  0
   -3.7504    0.7544    0.0000 N   0  0  0  0  0  0  0  0  0  0  0  0
   -4.6422    1.9604    0.0000 C   0  0  0  0  0  0  0  0  0  0  0  0
   -6.1326    1.7911    0.0000 C   0  0  0  0  0  0  0  0  0  0  0  0
   -6.7312    0.4157    0.0000 N   0  0  0  0  0  0  0  0  0  0  0  0
   -8.2216    0.2464    0.0000 C   0  0  0  0  0  0  0  0  0  0  0  0
   -9.1134    1.4525    0.0000 C   0  0  0  0  0  0  0  0  0  0  0  0
  -10.6039    1.2831    0.0000 C   0  0  0  0  0  0  0  0  0  0  0  0
  -11.2024   -0.0923    0.0000 C   0  0  0  0  0  0  0  0  0  0  0  0
  -10.3106   -1.2983    0.0000 C   0  0  0  0  0  0  0  0  0  0  0  0
   -8.8202   -1.1290    0.0000 C   0  0  0  0  0  0  0  0  0  0  0  0
   -5.8393   -0.7904    0.0000 C   0  0  0  0  0  0  0  0  0  0  0  0
   -4.3489   -0.6210    0.0000 C   0  0  0  0  0  0  0  0  0  0  0  0
    3.5176   -2.2560    0.0000 C   0  0  0  0  0  0  0  0  0  0  0  0
    3.3734   -3.7491    0.0000 C   0  0  0  0  0  0  0  0  0  0  0  0
    4.5943   -4.6205    0.0000 C   0  0  0  0  0  0  0  0  0  0  0  0
    5.9594   -3.9989    0.0000 C   0  0  0  0  0  0  0  0  0  0  0  0
    6.1036   -2.5059    0.0000 C   0  0  0  0  0  0  0  0  0  0  0  0
    4.8827   -1.6344    0.0000 C   0  0  0  0  0  0  0  0  0  0  0  0
    4.7134   -0.1440    0.0000 N   0  0  0  0  0  0  0  0  0  0  0  0
    5.8197    0.8690    0.0000 C   0  0  0  0  0  0  0  0  0  0  0  0
    7.2501    0.4175    0.0000 C   0  0  0  0  0  0  0  0  0  0  0  0
    8.3563    1.4305    0.0000 C   0  0  0  0  0  0  0  0  0  0  0  0
    8.0321    2.8951    0.0000 C   0  0  0  0  0  0  0  0  0  0  0  0
    9.1384    3.9081    0.0000 F   0  0  0  0  0  0  0  0  0  0  0  0
    6.6017    3.3466    0.0000 C   0  0  0  0  0  0  0  0  0  0  0  0
    5.4955    2.3336    0.0000 C   0  0  0  0  0  0  0  0  0  0  0  0
  1  2  2  0
  2  3  1  0
  3  4  1  0
  4  5  1  0
  5  6  1  0
  6  7  1  0
  7  8  1  0
  8  9  1  0
  9 10  1  0
 10 11  1  0
 11 12  1  0
 12 13  1  0
 13 14  1  0
 14 15  1  0
 15 16  1  0
 16 17  1  0
 11 18  1  0
 18 19  1  0
  3 20  1  0
 20 21  2  0
 21 22  1  0
 22 23  2  0
 23 24  1  0
 24 25  2  0
 25 26  1  0
 26 27  1  0
 27 28  2  0
 28 29  1  0
 29 30  2  0
 30 31  1  0
 30 32  1  0
 32 33  2  0
 26  2  1  0
 33 27  1  0
 19  8  1  0
 25 20  1  0
 17 12  1  0
M  END
>  <Ki>  (359) 
2.12

>  <database>  (359) 
SRSLDB

$$$$

     RDKit          2D

 28 31  0  0  0  0  0  0  0  0999 V2000
   -6.9438   -0.6821    0.0000 C   0  0  0  0  0  0  0  0  0  0  0  0
   -5.5674   -0.0859    0.0000 C   0  0  0  0  0  0  0  0  0  0  0  0
   -5.3956    1.4042    0.0000 C   0  0  0  0  0  0  0  0  0  0  0  0
   -4.0191    2.0005    0.0000 C   0  0  0  0  0  0  0  0  0  0  0  0
   -2.8146    1.1066    0.0000 C   0  0  0  0  0  0  0  0  0  0  0  0
   -2.9864   -0.3836    0.0000 C   0  0  0  0  0  0  0  0  0  0  0  0
   -1.7819   -1.2775    0.0000 N   0  0  0  0  0  0  0  0  0  0  0  0
   -0.4055   -0.6812    0.0000 C   0  0  0  0  0  0  0  0  0  0  0  0
   -0.2336    0.8089    0.0000 O   0  0  0  0  0  0  0  0  0  0  0  0
    0.7991   -1.5751    0.0000 O   0  0  0  0  0  0  0  0  0  0  0  0
    2.1755   -0.9789    0.0000 C   0  0  0  0  0  0  0  0  0  0  0  0
    3.3800   -1.8728    0.0000 C   0  0  0  0  0  0  0  0  0  0  0  0
    4.7565   -1.2766    0.0000 C   0  0  0  0  0  0  0  0  0  0  0  0
    6.1329   -0.6804    0.0000 C   0  0  0  0  0  0  0  0  0  0  0  0
    6.3047    0.8098    0.0000 C   0  0  0  0  0  0  0  0  0  0  0  0
    5.1002    1.7037    0.0000 C   0  0  0  0  0  0  0  0  0  0  0  0
    3.7238    1.1074    0.0000 C   0  0  0  0  0  0  0  0  0  0  0  0
    2.3473    0.5112    0.0000 C   0  0  0  0  0  0  0  0  0  0  0  0
    3.5519   -0.3827    0.0000 N   0  0  0  0  0  0  0  0  0  0  0  0
    2.1755   -0.9789    0.0000 C   0  0  0  0  0  0  0  0  0  0  0  0
    0.9709   -0.0850    0.0000 C   0  0  0  0  0  0  0  0  0  0  0  0
    1.1428    1.4051    0.0000 C   0  0  0  0  0  0  0  0  0  0  0  0
   -0.0618    2.2990    0.0000 C   0  0  0  0  0  0  0  0  0  0  0  0
   -1.4382    1.7028    0.0000 C   0  0  0  0  0  0  0  0  0  0  0  0
   -1.6100    0.2127    0.0000 C   0  0  0  0  0  0  0  0  0  0  0  0
   -0.4055   -0.6812    0.0000 C   0  0  0  0  0  0  0  0  0  0  0  0
   -4.3629   -0.9798    0.0000 C   0  0  0  0  0  0  0  0  0  0  0  0
   -4.5347   -2.4699    0.0000 C   0  0  0  0  0  0  0  0  0  0  0  0
  1  2  1  0
  2  3  2  0
  3  4  1  0
  4  5  2  0
  5  6  1  0
  6  7  1  0
  7  8  1  0
  8  9  2  0
  8 10  1  0
 10 11  1  0
 11 12  1  0
 12 13  1  0
 13 14  1  0
 14 15  1  0
 15 16  1  0
 16 17  1  0
 17 18  1  0
 17 19  1  0
 19 20  1  0
 20 21  1  0
 21 22  2  0
 22 23  1  0
 23 24  2  0
 24 25  1  0
 25 26  2  0
  6 27  2  0
 27 28  1  0
 27  2  1  0
 18 11  1  0
 26 21  1  0
 19 13  1  0
M  END
>  <Ki>  (360) 
4.9

>  <database>  (360) 
SRSLDB

$$$$

     RDKit          2D

 23 26  0  0  0  0  0  0  0  0999 V2000
    1.5587   -4.0251    0.0000 O   0  0  0  0  0  0  0  0  0  0  0  0
    0.7693   -2.7496    0.0000 C   0  0  0  0  0  0  0  0  0  0  0  0
   -0.7300   -2.7956    0.0000 C   0  0  0  0  0  0  0  0  0  0  0  0
   -1.5194   -1.5201    0.0000 C   0  0  0  0  0  0  0  0  0  0  0  0
   -0.6995   -1.4445    0.0000 C   0  0  0  0  0  0  0  0  0  0  0  0
    0.6562   -1.4030    0.0000 N   0  0  0  0  0  0  0  0  0  0  0  0
    1.3997    1.1686    0.0000 C   0  0  0  0  0  0  0  0  0  0  0  0
    2.8990    1.2145    0.0000 C   0  0  0  0  0  0  0  0  0  0  0  0
    3.6884   -0.0610    0.0000 C   0  0  0  0  0  0  0  0  0  0  0  0
    5.1877   -0.0150    0.0000 C   0  0  0  0  0  0  0  0  0  0  0  0
    5.8976    1.3063    0.0000 C   0  0  0  0  0  0  0  0  0  0  0  0
    5.1081    2.5818    0.0000 C   0  0  0  0  0  0  0  0  0  0  0  0
    3.6089    2.5359    0.0000 C   0  0  0  0  0  0  0  0  0  0  0  0
    1.4792   -1.4283    0.0000 C   0  0  0  0  0  0  0  0  0  0  0  0
    0.6898   -0.1528    0.0000 C   0  0  0  0  0  0  0  0  0  0  0  0
   -0.8095   -0.1987    0.0000 N   0  0  0  0  0  0  0  0  0  0  0  0
   -1.5989    1.0768    0.0000 C   0  0  0  0  0  0  0  0  0  0  0  0
   -3.0982    1.0309    0.0000 C   0  0  0  0  0  0  0  0  0  0  0  0
   -3.8876    2.3063    0.0000 C   0  0  0  0  0  0  0  0  0  0  0  0
   -5.3869    2.2604    0.0000 C   0  0  0  0  0  0  0  0  0  0  0  0
   -6.0968    0.9390    0.0000 C   0  0  0  0  0  0  0  0  0  0  0  0
   -5.3074   -0.3364    0.0000 C   0  0  0  0  0  0  0  0  0  0  0  0
   -3.8081   -0.2905    0.0000 C   0  0  0  0  0  0  0  0  0  0  0  0
  2  1  1  1
  2  3  1  0
  4  3  1  1
  4  5  1  0
  5  6  1  0
  6  7  1  0
  7  8  1  0
  8  9  1  0
  9 10  1  0
 10 11  1  0
 11 12  1  0
 12 13  1  0
  6 14  1  0
 14 15  1  1
 15 16  1  0
 16 17  1  0
 17 18  1  0
 18 19  2  0
 19 20  1  0
 20 21  2  0
 21 22  1  0
 22 23  2  0
 14  2  1  0
 23 18  1  0
 16  4  1  0
 13  8  1  0
M  END
>  <Compound_Key>  (361) 
ent-38

>  <Ki>  (361) 
197.0

>  <database>  (361) 
NewLiterature

>  <Document_ChEMBL_ID>  (361) 
10.1021/acs.jmedchem.0c02265

$$$$

     RDKit          2D

 28 31  0  0  0  0  0  0  0  0999 V2000
    9.1922   -2.9554    0.0000 C   0  0  0  0  0  0  0  0  0  0  0  0
    8.9488   -1.4753    0.0000 C   0  0  0  0  0  0  0  0  0  0  0  0
   10.1090   -0.5244    0.0000 O   0  0  0  0  0  0  0  0  0  0  0  0
    7.5453   -0.9459    0.0000 C   0  0  0  0  0  0  0  0  0  0  0  0
    6.3852   -1.8968    0.0000 C   0  0  0  0  0  0  0  0  0  0  0  0
    4.9817   -1.3675    0.0000 C   0  0  0  0  0  0  0  0  0  0  0  0
    4.7383    0.1127    0.0000 C   0  0  0  0  0  0  0  0  0  0  0  0
    5.8984    1.0635    0.0000 C   0  0  0  0  0  0  0  0  0  0  0  0
    5.3527    2.4607    0.0000 C   0  0  0  0  0  0  0  0  0  0  0  0
    3.8552    2.3734    0.0000 C   0  0  0  0  0  0  0  0  0  0  0  0
    3.4755    0.9222    0.0000 N   0  0  0  0  0  0  0  0  0  0  0  0
    2.0783    0.3764    0.0000 C   0  0  0  0  0  0  0  0  0  0  0  0
    0.9071    1.3136    0.0000 C   0  0  0  0  0  0  0  0  0  0  0  0
   -0.4901    0.7678    0.0000 C   0  0  0  0  0  0  0  0  0  0  0  0
   -1.6614    1.7049    0.0000 C   0  0  0  0  0  0  0  0  0  0  0  0
   -3.0585    1.1591    0.0000 N   0  0  0  0  0  0  0  0  0  0  0  0
   -4.2298    2.0962    0.0000 C   0  0  0  0  0  0  0  0  0  0  0  0
   -5.6270    1.5504    0.0000 C   0  0  0  0  0  0  0  0  0  0  0  0
   -5.8529    0.0676    0.0000 N   0  0  0  0  0  0  0  0  0  0  0  0
   -7.2501   -0.4782    0.0000 C   0  0  0  0  0  0  0  0  0  0  0  0
   -8.4214    0.4589    0.0000 C   0  0  0  0  0  0  0  0  0  0  0  0
   -9.8185   -0.0869    0.0000 C   0  0  0  0  0  0  0  0  0  0  0  0
  -10.0445   -1.5698    0.0000 C   0  0  0  0  0  0  0  0  0  0  0  0
   -8.8732   -2.5069    0.0000 C   0  0  0  0  0  0  0  0  0  0  0  0
   -7.4760   -1.9611    0.0000 C   0  0  0  0  0  0  0  0  0  0  0  0
   -4.6817   -0.8696    0.0000 C   0  0  0  0  0  0  0  0  0  0  0  0
   -3.2845   -0.3238    0.0000 C   0  0  0  0  0  0  0  0  0  0  0  0
    7.3020    0.5342    0.0000 C   0  0  0  0  0  0  0  0  0  0  0  0
  1  2  1  0
  2  3  2  0
  2  4  1  0
  4  5  2  0
  5  6  1  0
  6  7  2  0
  7  8  1  0
  8  9  1  0
  9 10  2  0
 10 11  1  0
 11 12  1  0
 12 13  1  0
 13 14  1  0
 14 15  1  0
 15 16  1  0
 16 17  1  0
 17 18  1  0
 18 19  1  0
 19 20  1  0
 20 21  1  0
 21 22  1  0
 22 23  1  0
 23 24  1  0
 24 25  1  0
 19 26  1  0
 26 27  1  0
  8 28  2  0
 28  4  1  0
 11  7  1  0
 27 16  1  0
 25 20  1  0
M  END
>  <ChemBL_ID>  (362) 
CHEMBL1831158

>  <Ki>  (362) 
2.31

>  <database>  (362) 
SRSLDB

$$$$

     RDKit          2D

 22 24  0  0  0  0  0  0  0  0999 V2000
    3.2123   -2.1396    0.0000 C   0  0  0  0  0  0  0  0  0  0  0  0
    1.7129   -2.1819    0.0000 C   0  0  0  0  0  0  0  0  0  0  0  0
    0.9266   -0.9045    0.0000 C   0  0  0  0  0  0  0  0  0  0  0  0
   -0.5728   -0.9467    0.0000 C   0  0  0  0  0  0  0  0  0  0  0  0
   -1.3591    0.3307    0.0000 O   0  0  0  0  0  0  0  0  0  0  0  0
   -2.8585    0.2885    0.0000 C   0  0  0  0  0  0  0  0  0  0  0  0
   -3.5716   -1.0312    0.0000 C   0  0  0  0  0  0  0  0  0  0  0  0
   -5.0710   -1.0734    0.0000 C   0  0  0  0  0  0  0  0  0  0  0  0
   -6.5101   -0.6503    0.0000 C   0  0  0  0  0  0  0  0  0  0  0  0
   -6.5524    0.8491    0.0000 C   0  0  0  0  0  0  0  0  0  0  0  0
   -5.1394    1.3527    0.0000 C   0  0  0  0  0  0  0  0  0  0  0  0
   -3.6448    1.5659    0.0000 C   0  0  0  0  0  0  0  0  0  0  0  0
   -4.2239    0.1644    0.0000 N   0  0  0  0  0  0  0  0  0  0  0  0
   -3.4562    0.3790    0.0000 C   0  0  0  0  0  0  0  0  0  0  0  0
    1.6397    0.4152    0.0000 O   0  0  0  0  0  0  0  0  0  0  0  0
    3.1391    0.4574    0.0000 C   0  0  0  0  0  0  0  0  0  0  0  0
    3.9254   -0.8200    0.0000 C   0  0  0  0  0  0  0  0  0  0  0  0
    5.4248   -0.7777    0.0000 C   0  0  0  0  0  0  0  0  0  0  0  0
    6.1379    0.5419    0.0000 C   0  0  0  0  0  0  0  0  0  0  0  0
    7.6373    0.5841    0.0000 Cl  0  0  0  0  0  0  0  0  0  0  0  0
    5.3516    1.8193    0.0000 C   0  0  0  0  0  0  0  0  0  0  0  0
    3.8522    1.7771    0.0000 C   0  0  0  0  0  0  0  0  0  0  0  0
  1  2  1  0
  2  3  1  0
  3  4  1  0
  4  5  1  0
  5  6  1  0
  6  7  1  0
  7  8  1  0
  8  9  1  0
  9 10  1  0
 10 11  1  0
 11 12  1  0
 11 13  1  0
 13 14  1  0
  3 15  1  0
 15 16  1  0
 16 17  2  0
 17 18  1  0
 18 19  2  0
 19 20  1  0
 19 21  1  0
 21 22  2  0
 12  6  1  0
 22 16  1  0
 13  8  1  0
M  END
>  <ChemBL_ID>  (363) 
CHEMBL47325

>  <Ki>  (363) 
98.5

>  <database>  (363) 
SRSLDB

$$$$

     RDKit          2D

 25 30  0  0  0  0  0  0  0  0999 V2000
    7.0055   -2.0719    0.0000 C   0  0  0  0  0  0  0  0  0  0  0  0
    6.4458   -0.6802    0.0000 O   0  0  0  0  0  0  0  0  0  0  0  0
    4.9608   -0.4690    0.0000 C   0  0  0  0  0  0  0  0  0  0  0  0
    4.0353   -1.6495    0.0000 C   0  0  0  0  0  0  0  0  0  0  0  0
    2.5503   -1.4384    0.0000 C   0  0  0  0  0  0  0  0  0  0  0  0
    1.9906   -0.0467    0.0000 C   0  0  0  0  0  0  0  0  0  0  0  0
    0.5056    0.1645    0.0000 C   0  0  0  0  0  0  0  0  0  0  0  0
   -0.4198   -1.0160    0.0000 N   0  0  0  0  0  0  0  0  0  0  0  0
    0.1398   -2.4077    0.0000 C   0  0  0  0  0  0  0  0  0  0  0  0
   -2.6955    0.3506    0.0000 C   0  0  0  0  0  0  0  0  0  0  0  0
   -2.9487   -1.8821    0.0000 C   0  0  0  0  0  0  0  0  0  0  0  0
   -2.2889   -0.5350    0.0000 C   0  0  0  0  0  0  0  0  0  0  0  0
   -3.6145   -1.2370    0.0000 C   0  0  0  0  0  0  0  0  0  0  0  0
   -4.6918   -0.1933    0.0000 C   0  0  0  0  0  0  0  0  0  0  0  0
   -4.4337   -1.6709    0.0000 C   0  0  0  0  0  0  0  0  0  0  0  0
   -4.5951    0.0993    0.0000 C   0  0  0  0  0  0  0  0  0  0  0  0
   -6.6208   -0.1342    0.0000 O   0  0  0  0  0  0  0  0  0  0  0  0
   -3.8208    2.6389    0.0000 C   0  0  0  0  0  0  0  0  0  0  0  0
   -4.0320    1.1538    0.0000 C   0  0  0  0  0  0  0  0  0  0  0  0
   -2.5470    0.9426    0.0000 C   0  0  0  0  0  0  0  0  0  0  0  0
   -2.3358    2.4277    0.0000 C   0  0  0  0  0  0  0  0  0  0  0  0
    2.9161    1.1338    0.0000 C   0  0  0  0  0  0  0  0  0  0  0  0
    4.4011    0.9227    0.0000 C   0  0  0  0  0  0  0  0  0  0  0  0
    5.3265    2.1032    0.0000 O   0  0  0  0  0  0  0  0  0  0  0  0
    4.7669    3.4948    0.0000 C   0  0  0  0  0  0  0  0  0  0  0  0
  1  2  1  0
  2  3  1  0
  3  4  2  0
  4  5  1  0
  5  6  2  0
  6  7  1  0
  7  8  1  0
  8  9  1  0
 10  8  1  6
 10 11  1  0
 11 12  1  0
 12 13  1  0
 13 14  1  0
 14 15  1  0
 15 16  1  0
 16 17  2  0
 16 18  1  0
 18 19  1  0
 19 20  1  0
 20 21  1  0
  6 22  1  0
 22 23  2  0
 23 24  1  0
 24 25  1  0
 23  3  1  0
 21 10  1  0
 15 11  1  0
 21 18  1  0
 20 12  1  0
 19 14  1  0
M  END
>  <ChemBL_ID>  (364) 
CHEMBL2432042

>  <Ki>  (364) 
471.0

>  <database>  (364) 
SRSLDB

$$$$

     RDKit          2D

 27 31  0  0  0  0  0  0  0  0999 V2000
   -6.9472    0.0689    0.0000 C   0  0  0  0  0  0  0  0  0  0  0  0
   -5.6333    0.7926    0.0000 O   0  0  0  0  0  0  0  0  0  0  0  0
   -4.3496    0.0166    0.0000 C   0  0  0  0  0  0  0  0  0  0  0  0
   -4.3798   -1.4831    0.0000 O   0  0  0  0  0  0  0  0  0  0  0  0
   -3.0358    0.7404    0.0000 C   0  0  0  0  0  0  0  0  0  0  0  0
   -2.0949   -0.4279    0.0000 C   0  0  0  0  0  0  0  0  0  0  0  0
   -2.6362   -1.8268    0.0000 C   0  0  0  0  0  0  0  0  0  0  0  0
   -1.6953   -2.9950    0.0000 C   0  0  0  0  0  0  0  0  0  0  0  0
   -0.2131   -2.7643    0.0000 C   0  0  0  0  0  0  0  0  0  0  0  0
    0.3281   -1.3654    0.0000 C   0  0  0  0  0  0  0  0  0  0  0  0
   -0.6128   -0.1972    0.0000 C   0  0  0  0  0  0  0  0  0  0  0  0
   -3.5204    2.1599    0.0000 C   0  0  0  0  0  0  0  0  0  0  0  0
   -2.0487    1.8698    0.0000 C   0  0  0  0  0  0  0  0  0  0  0  0
   -0.6291    2.3544    0.0000 C   0  0  0  0  0  0  0  0  0  0  0  0
    0.5003    1.3673    0.0000 N   0  0  0  0  0  0  0  0  0  0  0  0
    1.9199    1.8519    0.0000 C   0  0  0  0  0  0  0  0  0  0  0  0
    2.2100    3.3236    0.0000 C   0  0  0  0  0  0  0  0  0  0  0  0
    3.0493    0.8648    0.0000 C   0  0  0  0  0  0  0  0  0  0  0  0
    2.7592   -0.6069    0.0000 C   0  0  0  0  0  0  0  0  0  0  0  0
    3.8887   -1.5940    0.0000 C   0  0  0  0  0  0  0  0  0  0  0  0
    5.3082   -1.1094    0.0000 C   0  0  0  0  0  0  0  0  0  0  0  0
    5.5984    0.3623    0.0000 C   0  0  0  0  0  0  0  0  0  0  0  0
    2.3267    0.0380    0.0000 C   0  0  0  0  0  0  0  0  0  0  0  0
    1.3396   -1.0915    0.0000 C   0  0  0  0  0  0  0  0  0  0  0  0
    2.4691   -2.0786    0.0000 C   0  0  0  0  0  0  0  0  0  0  0  0
    1.6298    0.3802    0.0000 C   0  0  0  0  0  0  0  0  0  0  0  0
    4.4689    1.3494    0.0000 C   0  0  0  0  0  0  0  0  0  0  0  0
  1  2  1  0
  2  3  1  0
  3  4  2  0
  3  5  1  0
  5  6  1  0
  6  7  2  0
  7  8  1  0
  8  9  2  0
  9 10  1  0
 10 11  2  0
  5 12  1  0
 12 13  1  0
 13 14  1  0
 14 15  1  0
 15 16  1  0
 16 17  1  0
 16 18  1  0
 18 19  1  0
 19 20  1  0
 20 21  1  0
 21 22  1  0
 22 23  1  0
 23 24  1  0
 24 25  1  0
 24 26  1  0
 22 27  1  0
 13  5  1  0
 26 18  1  0
 11  6  1  0
 27 18  1  0
 25 20  1  0
M  END
>  <Ki>  (365) 
45.2

>  <database>  (365) 
SRSLDB

$$$$

     RDKit          2D

 31 34  0  0  0  0  0  0  0  0999 V2000
   -8.1502   -1.5079    0.0000 C   0  0  0  0  0  0  0  0  0  0  0  0
   -6.7903   -2.1407    0.0000 O   0  0  0  0  0  0  0  0  0  0  0  0
   -5.5622   -1.2794    0.0000 C   0  0  0  0  0  0  0  0  0  0  0  0
   -5.6941    0.2148    0.0000 C   0  0  0  0  0  0  0  0  0  0  0  0
   -4.4661    1.0761    0.0000 C   0  0  0  0  0  0  0  0  0  0  0  0
   -3.1061    0.4432    0.0000 C   0  0  0  0  0  0  0  0  0  0  0  0
   -2.9742   -1.0510    0.0000 C   0  0  0  0  0  0  0  0  0  0  0  0
   -4.2023   -1.9123    0.0000 C   0  0  0  0  0  0  0  0  0  0  0  0
   -4.0704   -3.4065    0.0000 O   0  0  0  0  0  0  0  0  0  0  0  0
   -2.7104   -4.0393    0.0000 C   0  0  0  0  0  0  0  0  0  0  0  0
   -1.8781    1.3046    0.0000 C   0  0  0  0  0  0  0  0  0  0  0  0
   -2.0100    2.7988    0.0000 N   0  0  0  0  0  0  0  0  0  0  0  0
   -0.7819    3.6601    0.0000 C   0  0  0  0  0  0  0  0  0  0  0  0
    0.5780    3.0272    0.0000 C   0  0  0  0  0  0  0  0  0  0  0  0
    1.8894    3.7555    0.0000 C   0  0  0  0  0  0  0  0  0  0  0  0
    2.9872    2.7333    0.0000 C   0  0  0  0  0  0  0  0  0  0  0  0
    2.3544    1.3734    0.0000 C   0  0  0  0  0  0  0  0  0  0  0  0
    3.0826    0.0620    0.0000 C   0  0  0  0  0  0  0  0  0  0  0  0
    2.3111   -1.2244    0.0000 C   0  0  0  0  0  0  0  0  0  0  0  0
    3.0393   -2.5357    0.0000 C   0  0  0  0  0  0  0  0  0  0  0  0
    2.2677   -3.8221    0.0000 Br  0  0  0  0  0  0  0  0  0  0  0  0
    4.5391   -2.5607    0.0000 C   0  0  0  0  0  0  0  0  0  0  0  0
    5.3106   -1.2744    0.0000 C   0  0  0  0  0  0  0  0  0  0  0  0
    6.8104   -1.2994    0.0000 O   0  0  0  0  0  0  0  0  0  0  0  0
    7.5387   -2.6107    0.0000 C   0  0  0  0  0  0  0  0  0  0  0  0
    4.5824    0.0370    0.0000 C   0  0  0  0  0  0  0  0  0  0  0  0
    5.3540    1.3233    0.0000 O   0  0  0  0  0  0  0  0  0  0  0  0
    6.8537    1.2983    0.0000 C   0  0  0  0  0  0  0  0  0  0  0  0
    0.8654    1.5550    0.0000 N   0  0  0  0  0  0  0  0  0  0  0  0
   -3.3699    3.4316    0.0000 C   0  0  0  0  0  0  0  0  0  0  0  0
   -4.5980    2.5703    0.0000 C   0  0  0  0  0  0  0  0  0  0  0  0
  1  2  1  0
  2  3  1  0
  3  4  2  0
  4  5  1  0
  5  6  2  0
  6  7  1  0
  7  8  2  0
  8  9  1  0
  9 10  1  0
  6 11  1  0
 11 12  1  0
 12 13  1  0
 13 14  1  0
 14 15  2  0
 15 16  1  0
 16 17  2  0
 17 18  1  0
 18 19  2  0
 19 20  1  0
 20 21  1  0
 20 22  2  0
 22 23  1  0
 23 24  1  0
 24 25  1  0
 23 26  2  0
 26 27  1  0
 27 28  1  0
 17 29  1  0
 12 30  1  0
 30 31  1  0
  8  3  1  0
 29 14  1  0
 31  5  1  0
 26 18  1  0
M  END
>  <ChemBL_ID>  (366) 
CHEMBL60213

>  <Ki>  (366) 
460.0

>  <database>  (366) 
SRSLDB

$$$$

     RDKit          2D

 26 29  0  0  0  0  0  0  0  0999 V2000
    0.1972   -0.5924    0.0000 O   0  0  0  0  0  0  0  0  0  0  0  0
    0.1793    0.9075    0.0000 C   0  0  0  0  0  0  0  0  0  0  0  0
    1.4694    1.6729    0.0000 N   0  0  0  0  0  0  0  0  0  0  0  0
    2.7772    0.9384    0.0000 C   0  0  0  0  0  0  0  0  0  0  0  0
    2.7951   -0.5615    0.0000 C   0  0  0  0  0  0  0  0  0  0  0  0
    4.1029   -1.2960    0.0000 C   0  0  0  0  0  0  0  0  0  0  0  0
    5.3929   -0.5306    0.0000 C   0  0  0  0  0  0  0  0  0  0  0  0
    6.7008   -1.2651    0.0000 Br  0  0  0  0  0  0  0  0  0  0  0  0
    5.3751    0.9693    0.0000 C   0  0  0  0  0  0  0  0  0  0  0  0
    4.0672    1.7038    0.0000 C   0  0  0  0  0  0  0  0  0  0  0  0
   -1.1285    1.6420    0.0000 O   0  0  0  0  0  0  0  0  0  0  0  0
   -2.4186    0.8766    0.0000 C   0  0  0  0  0  0  0  0  0  0  0  0
   -2.4007   -0.6233    0.0000 C   0  0  0  0  0  0  0  0  0  0  0  0
   -3.6908   -1.3886    0.0000 C   0  0  0  0  0  0  0  0  0  0  0  0
   -5.1542   -1.7179    0.0000 C   0  0  0  0  0  0  0  0  0  0  0  0
   -5.9196   -0.4279    0.0000 C   0  0  0  0  0  0  0  0  0  0  0  0
   -4.9292    0.6987    0.0000 C   0  0  0  0  0  0  0  0  0  0  0  0
   -3.7264    1.6111    0.0000 C   0  0  0  0  0  0  0  0  0  0  0  0
   -3.5517    0.1049    0.0000 N   0  0  0  0  0  0  0  0  0  0  0  0
   -2.2617    0.8703    0.0000 C   0  0  0  0  0  0  0  0  0  0  0  0
   -0.9538    0.1358    0.0000 C   0  0  0  0  0  0  0  0  0  0  0  0
   -0.9360   -1.3641    0.0000 C   0  0  0  0  0  0  0  0  0  0  0  0
    0.3719   -2.0986    0.0000 C   0  0  0  0  0  0  0  0  0  0  0  0
    1.6619   -1.3332    0.0000 C   0  0  0  0  0  0  0  0  0  0  0  0
    1.6441    0.1667    0.0000 C   0  0  0  0  0  0  0  0  0  0  0  0
    0.3362    0.9012    0.0000 C   0  0  0  0  0  0  0  0  0  0  0  0
  1  2  2  0
  2  3  1  0
  3  4  1  0
  4  5  2  0
  5  6  1  0
  6  7  2  0
  7  8  1  0
  7  9  1  0
  9 10  2  0
  2 11  1  0
 11 12  1  0
 12 13  1  0
 13 14  1  0
 14 15  1  0
 15 16  1  0
 16 17  1  0
 17 18  1  0
 17 19  1  0
 19 20  1  0
 20 21  1  0
 21 22  2  0
 22 23  1  0
 23 24  2  0
 24 25  1  0
 25 26  2  0
 10  4  1  0
 18 12  1  0
 26 21  1  0
 19 14  1  0
M  END
>  <Ki>  (367) 
2.9

>  <database>  (367) 
SRSLDB

$$$$

     RDKit          2D

 27 30  0  0  0  0  0  0  0  0999 V2000
    5.8553   -2.6861    0.0000 O   0  0  0  0  0  0  0  0  0  0  0  0
    5.3434   -1.2762    0.0000 C   0  0  0  0  0  0  0  0  0  0  0  0
    6.1831   -0.0333    0.0000 C   0  0  0  0  0  0  0  0  0  0  0  0
    7.6687    0.1743    0.0000 C   0  0  0  0  0  0  0  0  0  0  0  0
    8.2316    1.5647    0.0000 C   0  0  0  0  0  0  0  0  0  0  0  0
    7.3091    2.7474    0.0000 C   0  0  0  0  0  0  0  0  0  0  0  0
    5.8235    2.5398    0.0000 C   0  0  0  0  0  0  0  0  0  0  0  0
    5.2605    1.1494    0.0000 C   0  0  0  0  0  0  0  0  0  0  0  0
    3.8506    0.6375    0.0000 C   0  0  0  0  0  0  0  0  0  0  0  0
    2.6077    1.4772    0.0000 O   0  0  0  0  0  0  0  0  0  0  0  0
    3.9018   -0.8616    0.0000 N   0  0  0  0  0  0  0  0  0  0  0  0
    2.7191   -1.7842    0.0000 C   0  0  0  0  0  0  0  0  0  0  0  0
    1.3287   -1.2212    0.0000 C   0  0  0  0  0  0  0  0  0  0  0  0
    0.1460   -2.1438    0.0000 C   0  0  0  0  0  0  0  0  0  0  0  0
   -1.2444   -1.5808    0.0000 N   0  0  0  0  0  0  0  0  0  0  0  0
   -1.4520   -0.0953    0.0000 C   0  0  0  0  0  0  0  0  0  0  0  0
   -2.8423    0.4677    0.0000 C   0  0  0  0  0  0  0  0  0  0  0  0
   -4.0250   -0.4549    0.0000 N   0  0  0  0  0  0  0  0  0  0  0  0
   -5.4154    0.1081    0.0000 C   0  0  0  0  0  0  0  0  0  0  0  0
   -5.6230    1.5937    0.0000 C   0  0  0  0  0  0  0  0  0  0  0  0
   -7.0133    2.1566    0.0000 C   0  0  0  0  0  0  0  0  0  0  0  0
   -8.1961    1.2340    0.0000 C   0  0  0  0  0  0  0  0  0  0  0  0
   -9.5864    1.7970    0.0000 F   0  0  0  0  0  0  0  0  0  0  0  0
   -7.9885   -0.2515    0.0000 C   0  0  0  0  0  0  0  0  0  0  0  0
   -6.5981   -0.8145    0.0000 C   0  0  0  0  0  0  0  0  0  0  0  0
   -3.8174   -1.9405    0.0000 C   0  0  0  0  0  0  0  0  0  0  0  0
   -2.4271   -2.5034    0.0000 C   0  0  0  0  0  0  0  0  0  0  0  0
  1  2  2  0
  2  3  1  0
  3  4  2  0
  4  5  1  0
  5  6  2  0
  6  7  1  0
  7  8  2  0
  8  9  1  0
  9 10  2  0
  9 11  1  0
 11 12  1  0
 12 13  1  0
 13 14  1  0
 14 15  1  0
 15 16  1  0
 16 17  1  0
 17 18  1  0
 18 19  1  0
 19 20  2  0
 20 21  1  0
 21 22  2  0
 22 23  1  0
 22 24  1  0
 24 25  2  0
 18 26  1  0
 26 27  1  0
 11  2  1  0
 27 15  1  0
  8  3  1  0
 25 19  1  0
M  END
>  <ChemBL_ID>  (368) 
CHEMBL218977

>  <Ki>  (368) 
741.67

>  <database>  (368) 
SRSLDB

$$$$

     RDKit          2D

 36 40  0  0  0  0  0  0  0  0999 V2000
   -5.0780   -3.6999    0.0000 C   0  0  0  0  0  0  0  0  0  0  0  0
   -3.5818   -3.5939    0.0000 C   0  0  0  0  0  0  0  0  0  0  0  0
   -2.9254   -2.2451    0.0000 N   0  0  0  0  0  0  0  0  0  0  0  0
   -1.4292   -2.1391    0.0000 C   0  0  0  0  0  0  0  0  0  0  0  0
   -0.7728   -0.7903    0.0000 C   0  0  0  0  0  0  0  0  0  0  0  0
    0.7234   -0.6843    0.0000 C   0  0  0  0  0  0  0  0  0  0  0  0
    1.3797    0.6645    0.0000 C   0  0  0  0  0  0  0  0  0  0  0  0
    2.8760    0.7705    0.0000 C   0  0  0  0  0  0  0  0  0  0  0  0
    3.8412   -0.3777    0.0000 C   0  0  0  0  0  0  0  0  0  0  0  0
    5.2315    0.1855    0.0000 N   0  0  0  0  0  0  0  0  0  0  0  0
    6.5043   -0.6083    0.0000 C   0  0  0  0  0  0  0  0  0  0  0  0
    6.4533   -2.1074    0.0000 C   0  0  0  0  0  0  0  0  0  0  0  0
    7.7261   -2.9011    0.0000 C   0  0  0  0  0  0  0  0  0  0  0  0
    9.0499   -2.1957    0.0000 C   0  0  0  0  0  0  0  0  0  0  0  0
   10.3227   -2.9894    0.0000 F   0  0  0  0  0  0  0  0  0  0  0  0
    9.1008   -0.6966    0.0000 C   0  0  0  0  0  0  0  0  0  0  0  0
    7.8280    0.0971    0.0000 C   0  0  0  0  0  0  0  0  0  0  0  0
    5.1255    1.6817    0.0000 C   0  0  0  0  0  0  0  0  0  0  0  0
    6.1665    2.7617    0.0000 C   0  0  0  0  0  0  0  0  0  0  0  0
    5.7517    4.2032    0.0000 C   0  0  0  0  0  0  0  0  0  0  0  0
    4.2959    4.5647    0.0000 C   0  0  0  0  0  0  0  0  0  0  0  0
    3.2549    3.4848    0.0000 C   0  0  0  0  0  0  0  0  0  0  0  0
    3.6697    2.0433    0.0000 C   0  0  0  0  0  0  0  0  0  0  0  0
   -3.7653   -1.0023    0.0000 C   0  0  0  0  0  0  0  0  0  0  0  0
   -3.2536    0.4077    0.0000 C   0  0  0  0  0  0  0  0  0  0  0  0
   -4.4365    1.3301    0.0000 C   0  0  0  0  0  0  0  0  0  0  0  0
   -5.6792    0.4902    0.0000 C   0  0  0  0  0  0  0  0  0  0  0  0
   -5.2645   -0.9513    0.0000 C   0  0  0  0  0  0  0  0  0  0  0  0
   -6.3055   -2.0313    0.0000 C   0  0  0  0  0  0  0  0  0  0  0  0
   -7.7613   -1.6697    0.0000 C   0  0  0  0  0  0  0  0  0  0  0  0
   -8.1760   -0.2282    0.0000 C   0  0  0  0  0  0  0  0  0  0  0  0
   -9.6318    0.1334    0.0000 O   0  0  0  0  0  0  0  0  0  0  0  0
  -10.0466    1.5749    0.0000 C   0  0  0  0  0  0  0  0  0  0  0  0
   -7.1350    0.8518    0.0000 C   0  0  0  0  0  0  0  0  0  0  0  0
   -7.5498    2.2933    0.0000 O   0  0  0  0  0  0  0  0  0  0  0  0
   -6.5088    3.3732    0.0000 C   0  0  0  0  0  0  0  0  0  0  0  0
  1  2  1  0
  2  3  1  0
  3  4  1  0
  4  5  1  0
  5  6  1  0
  6  7  1  0
  7  8  1  0
  8  9  2  0
  9 10  1  0
 10 11  1  0
 11 12  2  0
 12 13  1  0
 13 14  2  0
 14 15  1  0
 14 16  1  0
 16 17  2  0
 10 18  1  0
 18 19  2  0
 19 20  1  0
 20 21  2  0
 21 22  1  0
 22 23  2  0
  3 24  1  0
 24 25  1  0
 25 26  1  0
 26 27  1  0
 27 28  2  0
 28 29  1  0
 29 30  2  0
 30 31  1  0
 31 32  1  0
 32 33  1  0
 31 34  2  0
 34 35  1  0
 35 36  1  0
 23  8  1  0
 28 24  1  0
 17 11  1  0
 23 18  1  0
 34 27  1  0
M  END
>  <Ki>  (369) 
27.6

>  <database>  (369) 
SRSLDB

$$$$

     RDKit          2D

 30 33  0  0  0  0  0  0  0  0999 V2000
  -10.6012   -0.8279    0.0000 C   0  0  0  0  0  0  0  0  0  0  0  0
   -9.1833   -1.3176    0.0000 O   0  0  0  0  0  0  0  0  0  0  0  0
   -8.0503   -0.3346    0.0000 C   0  0  0  0  0  0  0  0  0  0  0  0
   -8.3351    1.1381    0.0000 C   0  0  0  0  0  0  0  0  0  0  0  0
   -7.2021    2.1211    0.0000 C   0  0  0  0  0  0  0  0  0  0  0  0
   -5.7843    1.6314    0.0000 C   0  0  0  0  0  0  0  0  0  0  0  0
   -5.4995    0.1587    0.0000 C   0  0  0  0  0  0  0  0  0  0  0  0
   -6.6325   -0.8243    0.0000 C   0  0  0  0  0  0  0  0  0  0  0  0
   -6.3477   -2.2970    0.0000 C   0  0  0  0  0  0  0  0  0  0  0  0
   -4.9299   -2.7867    0.0000 C   0  0  0  0  0  0  0  0  0  0  0  0
   -3.7969   -1.8037    0.0000 C   0  0  0  0  0  0  0  0  0  0  0  0
   -4.0817   -0.3310    0.0000 C   0  0  0  0  0  0  0  0  0  0  0  0
   -2.9487    0.6520    0.0000 C   0  0  0  0  0  0  0  0  0  0  0  0
   -3.2335    2.1247    0.0000 O   0  0  0  0  0  0  0  0  0  0  0  0
   -1.5309    0.1623    0.0000 N   0  0  0  0  0  0  0  0  0  0  0  0
   -0.3979    1.1453    0.0000 C   0  0  0  0  0  0  0  0  0  0  0  0
    1.0199    0.6556    0.0000 C   0  0  0  0  0  0  0  0  0  0  0  0
    2.1529    1.6386    0.0000 C   0  0  0  0  0  0  0  0  0  0  0  0
    3.5707    1.1489    0.0000 N   0  0  0  0  0  0  0  0  0  0  0  0
    3.8555   -0.3238    0.0000 C   0  0  0  0  0  0  0  0  0  0  0  0
    5.2733   -0.8135    0.0000 C   0  0  0  0  0  0  0  0  0  0  0  0
    6.4063    0.1695    0.0000 N   0  0  0  0  0  0  0  0  0  0  0  0
    7.8242   -0.3203    0.0000 C   0  0  0  0  0  0  0  0  0  0  0  0
    8.1090   -1.7930    0.0000 C   0  0  0  0  0  0  0  0  0  0  0  0
    9.5268   -2.2827    0.0000 C   0  0  0  0  0  0  0  0  0  0  0  0
   10.6598   -1.2997    0.0000 C   0  0  0  0  0  0  0  0  0  0  0  0
   10.3750    0.1730    0.0000 C   0  0  0  0  0  0  0  0  0  0  0  0
    8.9572    0.6628    0.0000 C   0  0  0  0  0  0  0  0  0  0  0  0
    6.1215    1.6422    0.0000 C   0  0  0  0  0  0  0  0  0  0  0  0
    4.7037    2.1319    0.0000 C   0  0  0  0  0  0  0  0  0  0  0  0
  1  2  1  0
  2  3  1  0
  3  4  2  0
  4  5  1  0
  5  6  2  0
  6  7  1  0
  7  8  2  0
  8  9  1  0
  9 10  1  0
 10 11  1  0
 11 12  1  0
 12 13  1  0
 13 14  2  0
 13 15  1  0
 15 16  1  0
 16 17  1  0
 17 18  1  0
 18 19  1  0
 19 20  1  0
 20 21  1  0
 21 22  1  0
 22 23  1  0
 23 24  1  0
 24 25  1  0
 25 26  1  0
 26 27  1  0
 27 28  1  0
 22 29  1  0
 29 30  1  0
  8  3  1  0
 30 19  1  0
 12  7  1  0
 28 23  1  0
M  END
>  <ChemBL_ID>  (370) 
CHEMBL1852271

>  <Ki>  (370) 
16.5

>  <database>  (370) 
SRSLDB

$$$$

     RDKit          2D

 33 37  0  0  0  0  0  0  0  0999 V2000
    9.3569   -3.5786    0.0000 C   0  0  0  0  0  0  0  0  0  0  0  0
    9.1586   -2.0918    0.0000 C   0  0  0  0  0  0  0  0  0  0  0  0
   10.3470   -1.1766    0.0000 O   0  0  0  0  0  0  0  0  0  0  0  0
    7.7718   -1.5201    0.0000 C   0  0  0  0  0  0  0  0  0  0  0  0
    6.5833   -2.4352    0.0000 C   0  0  0  0  0  0  0  0  0  0  0  0
    5.1965   -1.8636    0.0000 C   0  0  0  0  0  0  0  0  0  0  0  0
    4.9982   -0.3767    0.0000 C   0  0  0  0  0  0  0  0  0  0  0  0
    6.1867    0.5384    0.0000 C   0  0  0  0  0  0  0  0  0  0  0  0
    7.5735   -0.0332    0.0000 C   0  0  0  0  0  0  0  0  0  0  0  0
    5.6836    1.9515    0.0000 O   0  0  0  0  0  0  0  0  0  0  0  0
    4.1842    1.9097    0.0000 C   0  0  0  0  0  0  0  0  0  0  0  0
    3.2690    3.0982    0.0000 O   0  0  0  0  0  0  0  0  0  0  0  0
    3.7606    0.4708    0.0000 N   0  0  0  0  0  0  0  0  0  0  0  0
    2.3475   -0.0323    0.0000 C   0  0  0  0  0  0  0  0  0  0  0  0
    1.2052    0.9399    0.0000 C   0  0  0  0  0  0  0  0  0  0  0  0
    1.4761    2.4153    0.0000 C   0  0  0  0  0  0  0  0  0  0  0  0
    0.3338    3.3875    0.0000 C   0  0  0  0  0  0  0  0  0  0  0  0
   -1.0793    2.8844    0.0000 C   0  0  0  0  0  0  0  0  0  0  0  0
   -1.3502    1.4091    0.0000 C   0  0  0  0  0  0  0  0  0  0  0  0
   -2.7633    0.9060    0.0000 N   0  0  0  0  0  0  0  0  0  0  0  0
   -3.9055    1.8782    0.0000 C   0  0  0  0  0  0  0  0  0  0  0  0
   -5.3186    1.3751    0.0000 C   0  0  0  0  0  0  0  0  0  0  0  0
   -5.5895   -0.1002    0.0000 N   0  0  0  0  0  0  0  0  0  0  0  0
   -7.0026   -0.6033    0.0000 C   0  0  0  0  0  0  0  0  0  0  0  0
   -8.1449    0.3689    0.0000 C   0  0  0  0  0  0  0  0  0  0  0  0
   -9.5580   -0.1342    0.0000 C   0  0  0  0  0  0  0  0  0  0  0  0
   -9.8289   -1.6095    0.0000 C   0  0  0  0  0  0  0  0  0  0  0  0
  -11.2420   -2.1126    0.0000 F   0  0  0  0  0  0  0  0  0  0  0  0
   -8.6866   -2.5818    0.0000 C   0  0  0  0  0  0  0  0  0  0  0  0
   -7.2735   -2.0787    0.0000 C   0  0  0  0  0  0  0  0  0  0  0  0
   -4.4473   -1.0725    0.0000 C   0  0  0  0  0  0  0  0  0  0  0  0
   -3.0341   -0.5694    0.0000 C   0  0  0  0  0  0  0  0  0  0  0  0
   -0.2079    0.4368    0.0000 C   0  0  0  0  0  0  0  0  0  0  0  0
  1  2  1  0
  2  3  2  0
  2  4  1  0
  4  5  2  0
  5  6  1  0
  6  7  2  0
  7  8  1  0
  8  9  2  0
  8 10  1  0
 10 11  1  0
 11 12  2  0
 11 13  1  0
 13 14  1  0
 14 15  1  0
 15 16  1  0
 16 17  1  0
 17 18  1  0
 18 19  1  0
 19 20  1  0
 20 21  1  0
 21 22  1  0
 22 23  1  0
 23 24  1  0
 24 25  2  0
 25 26  1  0
 26 27  2  0
 27 28  1  0
 27 29  1  0
 29 30  2  0
 23 31  1  0
 31 32  1  0
 19 33  1  0
  9  4  1  0
 33 15  1  0
 13  7  1  0
 32 20  1  0
 30 24  1  0
M  END
>  <Ki>  (371) 
5.99

>  <database>  (371) 
SRSLDB

$$$$

     RDKit          2D

 15 17  0  0  0  0  0  0  0  0999 V2000
    4.7922    0.3198    0.0000 C   0  0  0  0  0  0  0  0  0  0  0  0
    4.3315   -1.1077    0.0000 C   0  0  0  0  0  0  0  0  0  0  0  0
    2.8649   -1.4224    0.0000 C   0  0  0  0  0  0  0  0  0  0  0  0
    1.8590   -0.3097    0.0000 C   0  0  0  0  0  0  0  0  0  0  0  0
    0.3924   -0.6244    0.0000 C   0  0  0  0  0  0  0  0  0  0  0  0
   -0.6135    0.4884    0.0000 C   0  0  0  0  0  0  0  0  0  0  0  0
   -2.0801    0.1736    0.0000 N   0  0  0  0  0  0  0  0  0  0  0  0
   -2.6875   -1.1979    0.0000 C   0  0  0  0  0  0  0  0  0  0  0  0
   -4.1796   -1.0440    0.0000 C   0  0  0  0  0  0  0  0  0  0  0  0
   -4.4943    0.4226    0.0000 C   0  0  0  0  0  0  0  0  0  0  0  0
   -3.1967    1.1752    0.0000 C   0  0  0  0  0  0  0  0  0  0  0  0
   -1.7047    1.0213    0.0000 C   0  0  0  0  0  0  0  0  0  0  0  0
   -1.3899   -0.4453    0.0000 C   0  0  0  0  0  0  0  0  0  0  0  0
    2.3198    1.1178    0.0000 C   0  0  0  0  0  0  0  0  0  0  0  0
    3.7864    1.4326    0.0000 C   0  0  0  0  0  0  0  0  0  0  0  0
  1  2  2  0
  2  3  1  0
  3  4  2  0
  4  5  1  0
  5  6  1  0
  6  7  1  0
  7  8  1  0
  8  9  1  0
  9 10  1  0
 10 11  1  0
 11 12  1  0
 12 13  1  0
  4 14  1  0
 14 15  2  0
 15  1  1  0
 11  7  1  0
 13  8  1  0
M  END
>  <ChemBL_ID>  (372) 
CHEMBL2030627

>  <Ki>  (372) 
131.0

>  <database>  (372) 
SRSLDB

$$$$

     RDKit          2D

 24 26  0  0  0  0  0  0  0  0999 V2000
    3.2275   -1.8936    0.0000 C   0  0  0  0  0  0  0  0  0  0  0  0
    1.7282   -1.9385    0.0000 C   0  0  0  0  0  0  0  0  0  0  0  0
    1.0174   -3.2594    0.0000 C   0  0  0  0  0  0  0  0  0  0  0  0
    0.9397   -0.6625    0.0000 C   0  0  0  0  0  0  0  0  0  0  0  0
    1.6505    0.6584    0.0000 S   0  0  0  0  0  0  0  0  0  0  0  0
    3.1498    0.7033    0.0000 C   0  0  0  0  0  0  0  0  0  0  0  0
    3.9383   -0.5728    0.0000 C   0  0  0  0  0  0  0  0  0  0  0  0
    5.4377   -0.5279    0.0000 C   0  0  0  0  0  0  0  0  0  0  0  0
    6.1485    0.7930    0.0000 C   0  0  0  0  0  0  0  0  0  0  0  0
    7.6478    0.8379    0.0000 Cl  0  0  0  0  0  0  0  0  0  0  0  0
    5.3599    2.0690    0.0000 C   0  0  0  0  0  0  0  0  0  0  0  0
    3.8606    2.0242    0.0000 C   0  0  0  0  0  0  0  0  0  0  0  0
   -0.5597   -0.7074    0.0000 C   0  0  0  0  0  0  0  0  0  0  0  0
   -1.2705   -2.0283    0.0000 O   0  0  0  0  0  0  0  0  0  0  0  0
   -1.3482    0.5687    0.0000 O   0  0  0  0  0  0  0  0  0  0  0  0
   -2.8475    0.5238    0.0000 C   0  0  0  0  0  0  0  0  0  0  0  0
   -3.5583   -0.7971    0.0000 C   0  0  0  0  0  0  0  0  0  0  0  0
   -5.0576   -0.8420    0.0000 C   0  0  0  0  0  0  0  0  0  0  0  0
   -6.4975   -0.4213    0.0000 C   0  0  0  0  0  0  0  0  0  0  0  0
   -6.5423    1.0780    0.0000 C   0  0  0  0  0  0  0  0  0  0  0  0
   -5.1302    1.5840    0.0000 C   0  0  0  0  0  0  0  0  0  0  0  0
   -3.6360    1.7998    0.0000 C   0  0  0  0  0  0  0  0  0  0  0  0
   -4.2127    0.3974    0.0000 N   0  0  0  0  0  0  0  0  0  0  0  0
   -3.4453    0.6133    0.0000 C   0  0  0  0  0  0  0  0  0  0  0  0
  1  2  1  0
  2  3  1  0
  2  4  1  0
  4  5  1  0
  5  6  1  0
  6  7  2  0
  7  8  1  0
  8  9  2  0
  9 10  1  0
  9 11  1  0
 11 12  2  0
  4 13  1  0
 13 14  2  0
 13 15  1  0
 15 16  1  0
 16 17  1  0
 17 18  1  0
 18 19  1  0
 19 20  1  0
 20 21  1  0
 21 22  1  0
 21 23  1  0
 23 24  1  0
 12  6  1  0
 22 16  1  0
 23 18  1  0
M  END
>  <ChemBL_ID>  (373) 
CHEMBL1199536

>  <Ki>  (373) 
332.0

>  <database>  (373) 
SRSLDB

$$$$

     RDKit          2D

 24 27  0  0  0  0  0  0  0  0999 V2000
    3.7791   -3.6000    0.0000 O   0  0  0  0  0  0  0  0  0  0  0  0
    4.2018   -2.1608    0.0000 C   0  0  0  0  0  0  0  0  0  0  0  0
    5.6146   -1.6568    0.0000 S   0  0  0  0  0  0  0  0  0  0  0  0
    5.5718   -0.1575    0.0000 C   0  0  0  0  0  0  0  0  0  0  0  0
    6.6575    0.8776    0.0000 C   0  0  0  0  0  0  0  0  0  0  0  0
    6.3040    2.3353    0.0000 C   0  0  0  0  0  0  0  0  0  0  0  0
    4.8647    2.7580    0.0000 C   0  0  0  0  0  0  0  0  0  0  0  0
    3.7791    1.7230    0.0000 C   0  0  0  0  0  0  0  0  0  0  0  0
    4.1326    0.2652    0.0000 C   0  0  0  0  0  0  0  0  0  0  0  0
    3.2859   -0.9729    0.0000 N   0  0  0  0  0  0  0  0  0  0  0  0
    1.7865   -1.0156    0.0000 C   0  0  0  0  0  0  0  0  0  0  0  0
    0.9998    0.2615    0.0000 C   0  0  0  0  0  0  0  0  0  0  0  0
   -0.4996    0.2188    0.0000 N   0  0  0  0  0  0  0  0  0  0  0  0
   -1.2863    1.4959    0.0000 C   0  0  0  0  0  0  0  0  0  0  0  0
   -2.7857    1.4532    0.0000 C   0  0  0  0  0  0  0  0  0  0  0  0
   -3.4984    0.1333    0.0000 N   0  0  0  0  0  0  0  0  0  0  0  0
   -4.9978    0.0906    0.0000 C   0  0  0  0  0  0  0  0  0  0  0  0
   -5.7845    1.3677    0.0000 C   0  0  0  0  0  0  0  0  0  0  0  0
   -7.2839    1.3250    0.0000 C   0  0  0  0  0  0  0  0  0  0  0  0
   -7.9966    0.0051    0.0000 C   0  0  0  0  0  0  0  0  0  0  0  0
   -7.2099   -1.2721    0.0000 C   0  0  0  0  0  0  0  0  0  0  0  0
   -5.7105   -1.2293    0.0000 C   0  0  0  0  0  0  0  0  0  0  0  0
   -2.7117   -1.1439    0.0000 C   0  0  0  0  0  0  0  0  0  0  0  0
   -1.2123   -1.1011    0.0000 C   0  0  0  0  0  0  0  0  0  0  0  0
  1  2  2  0
  2  3  1  0
  3  4  1  0
  4  5  2  0
  5  6  1  0
  6  7  2  0
  7  8  1  0
  8  9  2  0
  9 10  1  0
 10 11  1  0
 11 12  1  0
 12 13  1  0
 13 14  1  0
 14 15  1  0
 15 16  1  0
 16 17  1  0
 17 18  1  0
 18 19  1  0
 19 20  1  0
 20 21  1  0
 21 22  1  0
 16 23  1  0
 23 24  1  0
 10  2  1  0
 24 13  1  0
  9  4  1  0
 22 17  1  0
M  END
>  <ChemBL_ID>  (374) 
CHEMBL271975

>  <Ki>  (374) 
2.25

>  <database>  (374) 
SRSLDB

$$$$

     RDKit          2D

 27 30  0  0  0  0  0  0  0  0999 V2000
    6.6131   -2.2835    0.0000 C   0  0  0  0  0  0  0  0  0  0  0  0
    6.5085   -0.7872    0.0000 C   0  0  0  0  0  0  0  0  0  0  0  0
    5.1603   -0.1296    0.0000 C   0  0  0  0  0  0  0  0  0  0  0  0
    3.9167   -0.9684    0.0000 C   0  0  0  0  0  0  0  0  0  0  0  0
    2.5685   -0.3109    0.0000 C   0  0  0  0  0  0  0  0  0  0  0  0
    2.4639    1.1855    0.0000 C   0  0  0  0  0  0  0  0  0  0  0  0
    1.1157    1.8430    0.0000 N   0  0  0  0  0  0  0  0  0  0  0  0
   -0.1279    1.0042    0.0000 C   0  0  0  0  0  0  0  0  0  0  0  0
   -0.0232   -0.4921    0.0000 O   0  0  0  0  0  0  0  0  0  0  0  0
   -1.4761    1.6618    0.0000 O   0  0  0  0  0  0  0  0  0  0  0  0
   -2.7196    0.8230    0.0000 C   0  0  0  0  0  0  0  0  0  0  0  0
   -2.6150   -0.6734    0.0000 C   0  0  0  0  0  0  0  0  0  0  0  0
   -3.8585   -1.5122    0.0000 C   0  0  0  0  0  0  0  0  0  0  0  0
   -5.3004   -1.9257    0.0000 C   0  0  0  0  0  0  0  0  0  0  0  0
   -6.1392   -0.6821    0.0000 C   0  0  0  0  0  0  0  0  0  0  0  0
   -5.2157    0.4999    0.0000 C   0  0  0  0  0  0  0  0  0  0  0  0
   -4.0678    1.4805    0.0000 C   0  0  0  0  0  0  0  0  0  0  0  0
   -3.8062   -0.0131    0.0000 N   0  0  0  0  0  0  0  0  0  0  0  0
   -2.5626    0.8257    0.0000 C   0  0  0  0  0  0  0  0  0  0  0  0
   -1.2144    0.1682    0.0000 C   0  0  0  0  0  0  0  0  0  0  0  0
   -1.1098   -1.3282    0.0000 C   0  0  0  0  0  0  0  0  0  0  0  0
    0.2384   -1.9857    0.0000 C   0  0  0  0  0  0  0  0  0  0  0  0
    1.4820   -1.1469    0.0000 C   0  0  0  0  0  0  0  0  0  0  0  0
    1.3773    0.3494    0.0000 C   0  0  0  0  0  0  0  0  0  0  0  0
    0.0291    1.0070    0.0000 C   0  0  0  0  0  0  0  0  0  0  0  0
    3.7074    2.0243    0.0000 C   0  0  0  0  0  0  0  0  0  0  0  0
    5.0556    1.3667    0.0000 C   0  0  0  0  0  0  0  0  0  0  0  0
  1  2  1  0
  2  3  1  0
  3  4  2  0
  4  5  1  0
  5  6  2  0
  6  7  1  0
  7  8  1  0
  8  9  2  0
  8 10  1  0
 10 11  1  0
 11 12  1  0
 12 13  1  0
 13 14  1  0
 14 15  1  0
 15 16  1  0
 16 17  1  0
 16 18  1  0
 18 19  1  0
 19 20  1  0
 20 21  2  0
 21 22  1  0
 22 23  2  0
 23 24  1  0
 24 25  2  0
  6 26  1  0
 26 27  2  0
 27  3  1  0
 17 11  1  0
 25 20  1  0
 18 13  1  0
M  END
>  <Ki>  (375) 
12.1

>  <database>  (375) 
SRSLDB

$$$$

     RDKit          2D

 31 34  0  0  0  0  0  0  0  0999 V2000
   10.0566   -2.7608    0.0000 C   0  0  0  0  0  0  0  0  0  0  0  0
    9.7074   -1.3021    0.0000 C   0  0  0  0  0  0  0  0  0  0  0  0
   10.7962   -0.2702    0.0000 O   0  0  0  0  0  0  0  0  0  0  0  0
    8.2695   -0.8751    0.0000 C   0  0  0  0  0  0  0  0  0  0  0  0
    7.1807   -1.9069    0.0000 C   0  0  0  0  0  0  0  0  0  0  0  0
    5.7428   -1.4799    0.0000 C   0  0  0  0  0  0  0  0  0  0  0  0
    5.3936   -0.0212    0.0000 C   0  0  0  0  0  0  0  0  0  0  0  0
    6.4823    1.0107    0.0000 C   0  0  0  0  0  0  0  0  0  0  0  0
    7.9203    0.5837    0.0000 C   0  0  0  0  0  0  0  0  0  0  0  0
    5.8374    2.3650    0.0000 O   0  0  0  0  0  0  0  0  0  0  0  0
    4.3501    2.1702    0.0000 C   0  0  0  0  0  0  0  0  0  0  0  0
    3.3183    3.2589    0.0000 O   0  0  0  0  0  0  0  0  0  0  0  0
    4.0758    0.6955    0.0000 N   0  0  0  0  0  0  0  0  0  0  0  0
    2.7215    0.0506    0.0000 C   0  0  0  0  0  0  0  0  0  0  0  0
    1.4859    0.9010    0.0000 C   0  0  0  0  0  0  0  0  0  0  0  0
    0.1316    0.2561    0.0000 C   0  0  0  0  0  0  0  0  0  0  0  0
   -1.1040    1.1065    0.0000 C   0  0  0  0  0  0  0  0  0  0  0  0
   -2.4583    0.4617    0.0000 N   0  0  0  0  0  0  0  0  0  0  0  0
   -2.4649   -1.0383    0.0000 C   0  0  0  0  0  0  0  0  0  0  0  0
   -3.6418   -1.9684    0.0000 C   0  0  0  0  0  0  0  0  0  0  0  0
   -5.1027   -1.6282    0.0000 C   0  0  0  0  0  0  0  0  0  0  0  0
   -5.7476   -0.2739    0.0000 N   0  0  0  0  0  0  0  0  0  0  0  0
   -7.2476   -0.2673    0.0000 C   0  0  0  0  0  0  0  0  0  0  0  0
   -7.9918    1.0351    0.0000 C   0  0  0  0  0  0  0  0  0  0  0  0
   -9.4918    1.0417    0.0000 C   0  0  0  0  0  0  0  0  0  0  0  0
  -10.2475   -0.2541    0.0000 C   0  0  0  0  0  0  0  0  0  0  0  0
  -11.7475   -0.2475    0.0000 F   0  0  0  0  0  0  0  0  0  0  0  0
   -9.5033   -1.5564    0.0000 C   0  0  0  0  0  0  0  0  0  0  0  0
   -8.0033   -1.5630    0.0000 C   0  0  0  0  0  0  0  0  0  0  0  0
   -5.0908    1.0747    0.0000 C   0  0  0  0  0  0  0  0  0  0  0  0
   -3.6270    1.4021    0.0000 C   0  0  0  0  0  0  0  0  0  0  0  0
  1  2  1  0
  2  3  2  0
  2  4  1  0
  4  5  2  0
  5  6  1  0
  6  7  2  0
  7  8  1  0
  8  9  2  0
  8 10  1  0
 10 11  1  0
 11 12  2  0
 11 13  1  0
 13 14  1  0
 14 15  1  0
 15 16  1  0
 16 17  1  0
 17 18  1  0
 18 19  1  0
 19 20  1  0
 20 21  1  0
 21 22  1  0
 22 23  1  0
 23 24  2  0
 24 25  1  0
 25 26  2  0
 26 27  1  0
 26 28  1  0
 28 29  2  0
 22 30  1  0
 30 31  1  0
  9  4  1  0
 31 18  1  0
 13  7  1  0
 29 23  1  0
M  END
>  <Ki>  (376) 
50.6

>  <database>  (376) 
SRSLDB

$$$$

     RDKit          2D

 27 30  0  0  0  0  0  0  0  0999 V2000
   -7.2431    2.7711    0.0000 O   0  0  0  0  0  0  0  0  0  0  0  0
   -6.8039    1.3369    0.0000 C   0  0  0  0  0  0  0  0  0  0  0  0
   -7.7061    0.1385    0.0000 S   0  0  0  0  0  0  0  0  0  0  0  0
   -6.8452   -1.0898    0.0000 C   0  0  0  0  0  0  0  0  0  0  0  0
   -7.1820   -2.5515    0.0000 C   0  0  0  0  0  0  0  0  0  0  0  0
   -6.0845   -3.5740    0.0000 C   0  0  0  0  0  0  0  0  0  0  0  0
   -4.6502   -3.1348    0.0000 C   0  0  0  0  0  0  0  0  0  0  0  0
   -4.3134   -1.6731    0.0000 C   0  0  0  0  0  0  0  0  0  0  0  0
   -5.4109   -0.6506    0.0000 C   0  0  0  0  0  0  0  0  0  0  0  0
   -5.3854    0.8492    0.0000 N   0  0  0  0  0  0  0  0  0  0  0  0
   -4.1571    1.7101    0.0000 C   0  0  0  0  0  0  0  0  0  0  0  0
   -2.7973    1.0768    0.0000 C   0  0  0  0  0  0  0  0  0  0  0  0
   -1.5690    1.9377    0.0000 C   0  0  0  0  0  0  0  0  0  0  0  0
   -0.2093    1.3044    0.0000 C   0  0  0  0  0  0  0  0  0  0  0  0
    1.0191    2.1653    0.0000 C   0  0  0  0  0  0  0  0  0  0  0  0
    2.3788    1.5320    0.0000 N   0  0  0  0  0  0  0  0  0  0  0  0
    2.5102    0.0377    0.0000 C   0  0  0  0  0  0  0  0  0  0  0  0
    3.8700   -0.5956    0.0000 C   0  0  0  0  0  0  0  0  0  0  0  0
    5.0983    0.2653    0.0000 N   0  0  0  0  0  0  0  0  0  0  0  0
    6.4581   -0.3680    0.0000 C   0  0  0  0  0  0  0  0  0  0  0  0
    6.5895   -1.8622    0.0000 C   0  0  0  0  0  0  0  0  0  0  0  0
    7.9492   -2.4955    0.0000 C   0  0  0  0  0  0  0  0  0  0  0  0
    9.1776   -1.6346    0.0000 C   0  0  0  0  0  0  0  0  0  0  0  0
    9.0462   -0.1404    0.0000 C   0  0  0  0  0  0  0  0  0  0  0  0
    7.6864    0.4929    0.0000 C   0  0  0  0  0  0  0  0  0  0  0  0
    4.9669    1.7596    0.0000 C   0  0  0  0  0  0  0  0  0  0  0  0
    3.6072    2.3929    0.0000 C   0  0  0  0  0  0  0  0  0  0  0  0
  1  2  2  0
  2  3  1  0
  3  4  1  0
  4  5  2  0
  5  6  1  0
  6  7  2  0
  7  8  1  0
  8  9  2  0
  9 10  1  0
 10 11  1  0
 11 12  1  0
 12 13  1  0
 13 14  1  0
 14 15  1  0
 15 16  1  0
 16 17  1  0
 17 18  1  0
 18 19  1  0
 19 20  1  0
 20 21  1  0
 21 22  1  0
 22 23  1  0
 23 24  1  0
 24 25  1  0
 19 26  1  0
 26 27  1  0
 10  2  1  0
 27 16  1  0
  9  4  1  0
 25 20  1  0
M  END
>  <ChemBL_ID>  (377) 
CHEMBL406081

>  <Ki>  (377) 
2.44

>  <database>  (377) 
SRSLDB

$$$$

     RDKit          2D

 18 20  0  0  0  0  0  0  0  0999 V2000
   -5.0880   -1.3353    0.0000 C   0  0  0  0  0  0  0  0  0  0  0  0
   -4.3365   -0.0372    0.0000 C   0  0  0  0  0  0  0  0  0  0  0  0
   -5.7454    0.4775    0.0000 C   0  0  0  0  0  0  0  0  0  0  0  0
   -4.0743    1.4397    0.0000 C   0  0  0  0  0  0  0  0  0  0  0  0
   -2.6641    1.9511    0.0000 C   0  0  0  0  0  0  0  0  0  0  0  0
   -1.5162    0.9855    0.0000 C   0  0  0  0  0  0  0  0  0  0  0  0
   -1.7784   -0.4914    0.0000 N   0  0  0  0  0  0  0  0  0  0  0  0
   -0.6305   -1.4569    0.0000 C   0  0  0  0  0  0  0  0  0  0  0  0
    0.7797   -0.9456    0.0000 C   0  0  0  0  0  0  0  0  0  0  0  0
    2.0222   -1.7858    0.0000 C   0  0  0  0  0  0  0  0  0  0  0  0
    3.2053   -0.8637    0.0000 C   0  0  0  0  0  0  0  0  0  0  0  0
    4.6822   -1.1259    0.0000 C   0  0  0  0  0  0  0  0  0  0  0  0
    5.6478    0.0220    0.0000 C   0  0  0  0  0  0  0  0  0  0  0  0
    5.1364    1.4321    0.0000 C   0  0  0  0  0  0  0  0  0  0  0  0
    3.6595    1.6943    0.0000 C   0  0  0  0  0  0  0  0  0  0  0  0
    2.6940    0.5464    0.0000 C   0  0  0  0  0  0  0  0  0  0  0  0
    1.1948    0.4959    0.0000 O   0  0  0  0  0  0  0  0  0  0  0  0
   -3.1886   -1.0027    0.0000 C   0  0  0  0  0  0  0  0  0  0  0  0
  1  2  1  0
  2  3  1  0
  2  4  1  0
  4  5  1  0
  5  6  1  0
  6  7  1  0
  7  8  1  0
  8  9  1  0
  9 10  2  0
 10 11  1  0
 11 12  2  0
 12 13  1  0
 13 14  2  0
 14 15  1  0
 15 16  2  0
 16 17  1  0
  7 18  1  0
 18  2  1  0
 17  9  1  0
 16 11  1  0
M  END
>  <ChemBL_ID>  (378) 
CHEMBL1962452

>  <Ki>  (378) 
1810.0

>  <database>  (378) 
SRSLDB

$$$$

     RDKit          2D

 26 28  0  0  0  0  0  0  0  0999 V2000
    6.0862   -5.4919    0.0000 C   0  0  0  0  0  0  0  0  0  0  0  0
    6.2643   -4.0025    0.0000 C   0  0  0  0  0  0  0  0  0  0  0  0
    5.0634   -3.1037    0.0000 C   0  0  0  0  0  0  0  0  0  0  0  0
    5.2415   -1.6143    0.0000 C   0  0  0  0  0  0  0  0  0  0  0  0
    4.0406   -0.7154    0.0000 N   0  0  0  0  0  0  0  0  0  0  0  0
    2.6617   -1.3059    0.0000 C   0  0  0  0  0  0  0  0  0  0  0  0
    1.4609   -0.4070    0.0000 C   0  0  0  0  0  0  0  0  0  0  0  0
    1.6389    1.0824    0.0000 N   0  0  0  0  0  0  0  0  0  0  0  0
    0.4381    1.9812    0.0000 C   0  0  0  0  0  0  0  0  0  0  0  0
   -0.9408    1.3907    0.0000 C   0  0  0  0  0  0  0  0  0  0  0  0
   -2.1416    2.2896    0.0000 C   0  0  0  0  0  0  0  0  0  0  0  0
   -3.5205    1.6991    0.0000 C   0  0  0  0  0  0  0  0  0  0  0  0
   -3.6985    0.2097    0.0000 C   0  0  0  0  0  0  0  0  0  0  0  0
   -5.0774   -0.3808    0.0000 C   0  0  0  0  0  0  0  0  0  0  0  0
   -6.2782    0.5180    0.0000 C   0  0  0  0  0  0  0  0  0  0  0  0
   -7.6571   -0.0725    0.0000 C   0  0  0  0  0  0  0  0  0  0  0  0
   -7.8351   -1.5619    0.0000 C   0  0  0  0  0  0  0  0  0  0  0  0
   -6.6343   -2.4608    0.0000 C   0  0  0  0  0  0  0  0  0  0  0  0
   -5.2554   -1.8702    0.0000 C   0  0  0  0  0  0  0  0  0  0  0  0
   -2.4977   -0.6892    0.0000 C   0  0  0  0  0  0  0  0  0  0  0  0
   -1.1188   -0.0987    0.0000 C   0  0  0  0  0  0  0  0  0  0  0  0
    3.0178    1.6729    0.0000 C   0  0  0  0  0  0  0  0  0  0  0  0
    3.1958    3.1623    0.0000 C   0  0  0  0  0  0  0  0  0  0  0  0
    4.5747    3.7528    0.0000 C   0  0  0  0  0  0  0  0  0  0  0  0
    4.7527    5.2422    0.0000 O   0  0  0  0  0  0  0  0  0  0  0  0
    4.2186    0.7740    0.0000 C   0  0  0  0  0  0  0  0  0  0  0  0
  1  2  1  0
  2  3  1  0
  3  4  1  0
  4  5  1  0
  5  6  1  0
  6  7  1  0
  7  8  1  0
  8  9  1  0
  9 10  1  0
 10 11  2  0
 11 12  1  0
 12 13  2  0
 13 14  1  0
 14 15  2  0
 15 16  1  0
 16 17  2  0
 17 18  1  0
 18 19  2  0
 13 20  1  0
 20 21  2  0
  8 22  1  0
 22 23  1  1
 23 24  1  0
 24 25  1  0
 22 26  1  0
 26  5  1  0
 21 10  1  0
 19 14  1  0
M  END
>  <ChemBL_ID>  (379) 
CHEMBL3233536

>  <Ki>  (379) 
230.0

>  <database>  (379) 
SRSLDB

$$$$

     RDKit          2D

 29 33  0  0  0  0  0  0  0  0999 V2000
    3.6936   -3.9797    0.0000 O   0  0  0  0  0  0  0  0  0  0  0  0
    2.8268   -2.7555    0.0000 C   0  0  0  0  0  0  0  0  0  0  0  0
    1.3332   -2.8940    0.0000 C   0  0  0  0  0  0  0  0  0  0  0  0
    0.4665   -1.6697    0.0000 C   0  0  0  0  0  0  0  0  0  0  0  0
    1.2802   -1.5436    0.0000 C   0  0  0  0  0  0  0  0  0  0  0  0
    2.6307   -1.4184    0.0000 N   0  0  0  0  0  0  0  0  0  0  0  0
    3.2138    1.1942    0.0000 C   0  0  0  0  0  0  0  0  0  0  0  0
    4.7074    1.3327    0.0000 C   0  0  0  0  0  0  0  0  0  0  0  0
    5.5741    0.1085    0.0000 C   0  0  0  0  0  0  0  0  0  0  0  0
    7.0677    0.2470    0.0000 C   0  0  0  0  0  0  0  0  0  0  0  0
    7.6946    1.6097    0.0000 C   0  0  0  0  0  0  0  0  0  0  0  0
    6.8278    2.8340    0.0000 C   0  0  0  0  0  0  0  0  0  0  0  0
    5.3343    2.6955    0.0000 C   0  0  0  0  0  0  0  0  0  0  0  0
    3.4537   -1.3927    0.0000 C   0  0  0  0  0  0  0  0  0  0  0  0
    2.5870   -0.1685    0.0000 C   0  0  0  0  0  0  0  0  0  0  0  0
    1.0934   -0.3070    0.0000 N   0  0  0  0  0  0  0  0  0  0  0  0
    0.2266    0.9173    0.0000 C   0  0  0  0  0  0  0  0  0  0  0  0
   -1.2670    0.7788    0.0000 C   0  0  0  0  0  0  0  0  0  0  0  0
   -2.1337    2.0030    0.0000 C   0  0  0  0  0  0  0  0  0  0  0  0
   -3.6273    1.8645    0.0000 C   0  0  0  0  0  0  0  0  0  0  0  0
   -4.2542    0.5018    0.0000 C   0  0  0  0  0  0  0  0  0  0  0  0
   -5.7477    0.3633    0.0000 C   0  0  0  0  0  0  0  0  0  0  0  0
   -6.6145    1.5875    0.0000 C   0  0  0  0  0  0  0  0  0  0  0  0
   -8.1081    1.4490    0.0000 C   0  0  0  0  0  0  0  0  0  0  0  0
   -8.7349    0.0863    0.0000 C   0  0  0  0  0  0  0  0  0  0  0  0
   -7.8682   -1.1380    0.0000 C   0  0  0  0  0  0  0  0  0  0  0  0
   -6.3746   -0.9995    0.0000 C   0  0  0  0  0  0  0  0  0  0  0  0
   -3.3874   -0.7225    0.0000 C   0  0  0  0  0  0  0  0  0  0  0  0
   -1.8938   -0.5840    0.0000 C   0  0  0  0  0  0  0  0  0  0  0  0
  2  1  1  1
  2  3  1  0
  4  3  1  1
  4  5  1  0
  5  6  1  0
  6  7  1  0
  7  8  1  0
  8  9  1  0
  9 10  1  0
 10 11  1  0
 11 12  1  0
 12 13  1  0
  6 14  1  0
 14 15  1  1
 15 16  1  0
 16 17  1  0
 17 18  1  0
 18 19  2  0
 19 20  1  0
 20 21  2  0
 21 22  1  0
 22 23  2  0
 23 24  1  0
 24 25  2  0
 25 26  1  0
 26 27  2  0
 21 28  1  0
 28 29  2  0
 14  2  1  0
 29 18  1  0
 16  4  1  0
 27 22  1  0
 13  8  1  0
M  END
>  <Compound_Key>  (380) 
ent-42

>  <Ki>  (380) 
202.0

>  <database>  (380) 
NewLiterature

>  <Document_ChEMBL_ID>  (380) 
10.1021/acs.jmedchem.0c02265

$$$$

     RDKit          2D

 32 35  0  0  0  0  0  0  0  0999 V2000
    8.2445   -3.3046    0.0000 C   0  0  0  0  0  0  0  0  0  0  0  0
    8.2851   -1.8051    0.0000 O   0  0  0  0  0  0  0  0  0  0  0  0
    7.0069   -1.0202    0.0000 C   0  0  0  0  0  0  0  0  0  0  0  0
    5.6880   -1.7347    0.0000 C   0  0  0  0  0  0  0  0  0  0  0  0
    4.4098   -0.9498    0.0000 C   0  0  0  0  0  0  0  0  0  0  0  0
    4.4504    0.5497    0.0000 C   0  0  0  0  0  0  0  0  0  0  0  0
    5.7693    1.2642    0.0000 C   0  0  0  0  0  0  0  0  0  0  0  0
    7.0475    0.4793    0.0000 C   0  0  0  0  0  0  0  0  0  0  0  0
    8.3664    1.1938    0.0000 O   0  0  0  0  0  0  0  0  0  0  0  0
    8.4071    2.6932    0.0000 C   0  0  0  0  0  0  0  0  0  0  0  0
    3.1722    1.3346    0.0000 C   0  0  0  0  0  0  0  0  0  0  0  0
    3.2128    2.8341    0.0000 C   0  0  0  0  0  0  0  0  0  0  0  0
    1.8533    0.6201    0.0000 N   0  0  0  0  0  0  0  0  0  0  0  0
    0.5751    1.4050    0.0000 C   0  0  0  0  0  0  0  0  0  0  0  0
   -0.7438    0.6905    0.0000 C   0  0  0  0  0  0  0  0  0  0  0  0
   -0.9410   -0.7965    0.0000 C   0  0  0  0  0  0  0  0  0  0  0  0
   -2.4161   -1.0685    0.0000 C   0  0  0  0  0  0  0  0  0  0  0  0
   -3.1306    0.2504    0.0000 C   0  0  0  0  0  0  0  0  0  0  0  0
   -4.6176    0.4476    0.0000 C   0  0  0  0  0  0  0  0  0  0  0  0
   -5.1904    1.8339    0.0000 C   0  0  0  0  0  0  0  0  0  0  0  0
   -6.6773    2.0311    0.0000 C   0  0  0  0  0  0  0  0  0  0  0  0
   -7.2501    3.4174    0.0000 Br  0  0  0  0  0  0  0  0  0  0  0  0
   -7.5916    0.8419    0.0000 C   0  0  0  0  0  0  0  0  0  0  0  0
   -7.0188   -0.5444    0.0000 C   0  0  0  0  0  0  0  0  0  0  0  0
   -7.9331   -1.7336    0.0000 O   0  0  0  0  0  0  0  0  0  0  0  0
   -9.4201   -1.5365    0.0000 C   0  0  0  0  0  0  0  0  0  0  0  0
   -5.5319   -0.7416    0.0000 C   0  0  0  0  0  0  0  0  0  0  0  0
   -4.9591   -2.1280    0.0000 O   0  0  0  0  0  0  0  0  0  0  0  0
   -5.8734   -3.3171    0.0000 C   0  0  0  0  0  0  0  0  0  0  0  0
   -2.0971    1.3375    0.0000 N   0  0  0  0  0  0  0  0  0  0  0  0
    1.8127   -0.8794    0.0000 C   0  0  0  0  0  0  0  0  0  0  0  0
    3.0909   -1.6643    0.0000 C   0  0  0  0  0  0  0  0  0  0  0  0
  1  2  1  0
  2  3  1  0
  3  4  2  0
  4  5  1  0
  5  6  2  0
  6  7  1  0
  7  8  2  0
  8  9  1  0
  9 10  1  0
  6 11  1  0
 11 12  1  0
 11 13  1  0
 13 14  1  0
 14 15  1  0
 15 16  2  0
 16 17  1  0
 17 18  2  0
 18 19  1  0
 19 20  2  0
 20 21  1  0
 21 22  1  0
 21 23  2  0
 23 24  1  0
 24 25  1  0
 25 26  1  0
 24 27  2  0
 27 28  1  0
 28 29  1  0
 18 30  1  0
 13 31  1  0
 31 32  1  0
  8  3  1  0
 30 15  1  0
 32  5  1  0
 27 19  1  0
M  END
>  <Ki>  (381) 
500.0

>  <database>  (381) 
SRSLDB

$$$$

     RDKit          2D

 27 30  0  0  0  0  0  0  0  0999 V2000
  -10.2643   -0.5247    0.0000 C   0  0  0  0  0  0  0  0  0  0  0  0
   -8.7774   -0.3271    0.0000 C   0  0  0  0  0  0  0  0  0  0  0  0
   -8.2051    1.0595    0.0000 C   0  0  0  0  0  0  0  0  0  0  0  0
   -6.7182    1.2572    0.0000 C   0  0  0  0  0  0  0  0  0  0  0  0
   -5.8036    0.0683    0.0000 C   0  0  0  0  0  0  0  0  0  0  0  0
   -4.3166    0.2660    0.0000 N   0  0  0  0  0  0  0  0  0  0  0  0
   -3.4020   -0.9229    0.0000 C   0  0  0  0  0  0  0  0  0  0  0  0
   -1.9151   -0.7252    0.0000 C   0  0  0  0  0  0  0  0  0  0  0  0
   -1.3428    0.6613    0.0000 N   0  0  0  0  0  0  0  0  0  0  0  0
    0.1441    0.8590    0.0000 C   0  0  0  0  0  0  0  0  0  0  0  0
    1.0588   -0.3299    0.0000 C   0  0  0  0  0  0  0  0  0  0  0  0
    2.5457   -0.1322    0.0000 C   0  0  0  0  0  0  0  0  0  0  0  0
    3.4603   -1.3211    0.0000 C   0  0  0  0  0  0  0  0  0  0  0  0
    4.9473   -1.1234    0.0000 N   0  0  0  0  0  0  0  0  0  0  0  0
    5.9812   -2.2102    0.0000 C   0  0  0  0  0  0  0  0  0  0  0  0
    5.7097   -3.6854    0.0000 O   0  0  0  0  0  0  0  0  0  0  0  0
    7.3342   -1.5627    0.0000 O   0  0  0  0  0  0  0  0  0  0  0  0
    7.1365   -0.0758    0.0000 C   0  0  0  0  0  0  0  0  0  0  0  0
    8.1093    1.0661    0.0000 C   0  0  0  0  0  0  0  0  0  0  0  0
    7.6068    2.4794    0.0000 C   0  0  0  0  0  0  0  0  0  0  0  0
    6.1315    2.7509    0.0000 C   0  0  0  0  0  0  0  0  0  0  0  0
    5.1588    1.6090    0.0000 C   0  0  0  0  0  0  0  0  0  0  0  0
    5.6613    0.1957    0.0000 C   0  0  0  0  0  0  0  0  0  0  0  0
   -2.2575    1.8502    0.0000 C   0  0  0  0  0  0  0  0  0  0  0  0
   -3.7444    1.6525    0.0000 C   0  0  0  0  0  0  0  0  0  0  0  0
   -6.3758   -1.3183    0.0000 C   0  0  0  0  0  0  0  0  0  0  0  0
   -7.8627   -1.5159    0.0000 C   0  0  0  0  0  0  0  0  0  0  0  0
  1  2  1  0
  2  3  2  0
  3  4  1  0
  4  5  2  0
  5  6  1  0
  6  7  1  0
  7  8  1  0
  8  9  1  0
  9 10  1  0
 10 11  1  0
 11 12  1  0
 12 13  1  0
 13 14  1  0
 14 15  1  0
 15 16  2  0
 15 17  1  0
 17 18  1  0
 18 19  2  0
 19 20  1  0
 20 21  2  0
 21 22  1  0
 22 23  2  0
  9 24  1  0
 24 25  1  0
  5 26  1  0
 26 27  2  0
 27  2  1  0
 25  6  1  0
 23 14  1  0
 23 18  1  0
M  END
>  <Ki>  (382) 
107.02

>  <database>  (382) 
SRSLDB

$$$$

     RDKit          2D

 26 28  0  0  0  0  0  0  0  0999 V2000
   -3.2174    2.0203    0.0000 O   0  0  0  0  0  0  0  0  0  0  0  0
   -3.8520    0.6612    0.0000 C   0  0  0  0  0  0  0  0  0  0  0  0
   -2.9922   -0.5680    0.0000 C   0  0  0  0  0  0  0  0  0  0  0  0
   -1.4978   -0.4379    0.0000 C   0  0  0  0  0  0  0  0  0  0  0  0
   -0.6381   -1.6671    0.0000 C   0  0  0  0  0  0  0  0  0  0  0  0
    0.8563   -1.5370    0.0000 N   0  0  0  0  0  0  0  0  0  0  0  0
    1.7161   -2.7662    0.0000 C   0  0  0  0  0  0  0  0  0  0  0  0
    3.2104   -2.6361    0.0000 C   0  0  0  0  0  0  0  0  0  0  0  0
    3.8450   -1.2770    0.0000 C   0  0  0  0  0  0  0  0  0  0  0  0
    5.0733   -2.1379    0.0000 O   0  0  0  0  0  0  0  0  0  0  0  0
    4.9062   -0.2168    0.0000 C   0  0  0  0  0  0  0  0  0  0  0  0
    6.3549   -0.6057    0.0000 C   0  0  0  0  0  0  0  0  0  0  0  0
    7.4160    0.4544    0.0000 C   0  0  0  0  0  0  0  0  0  0  0  0
    7.0285    1.9035    0.0000 C   0  0  0  0  0  0  0  0  0  0  0  0
    8.0897    2.9636    0.0000 Cl  0  0  0  0  0  0  0  0  0  0  0  0
    5.5798    2.2924    0.0000 C   0  0  0  0  0  0  0  0  0  0  0  0
    4.5186    1.2322    0.0000 C   0  0  0  0  0  0  0  0  0  0  0  0
    2.9852   -0.0479    0.0000 C   0  0  0  0  0  0  0  0  0  0  0  0
    1.4909   -0.1779    0.0000 C   0  0  0  0  0  0  0  0  0  0  0  0
   -5.3463    0.5312    0.0000 C   0  0  0  0  0  0  0  0  0  0  0  0
   -6.2061    1.7603    0.0000 C   0  0  0  0  0  0  0  0  0  0  0  0
   -7.7005    1.6303    0.0000 C   0  0  0  0  0  0  0  0  0  0  0  0
   -8.3350    0.2711    0.0000 C   0  0  0  0  0  0  0  0  0  0  0  0
   -9.8294    0.1411    0.0000 F   0  0  0  0  0  0  0  0  0  0  0  0
   -7.4753   -0.9580    0.0000 C   0  0  0  0  0  0  0  0  0  0  0  0
   -5.9809   -0.8280    0.0000 C   0  0  0  0  0  0  0  0  0  0  0  0
  2  1  1  6
  2  3  1  0
  3  4  1  0
  4  5  1  0
  5  6  1  0
  6  7  1  0
  7  8  1  0
  8  9  1  0
  9 10  1  0
  9 11  1  0
 11 12  2  0
 12 13  1  0
 13 14  2  0
 14 15  1  0
 14 16  1  0
 16 17  2  0
  9 18  1  0
 18 19  1  0
  2 20  1  0
 20 21  2  0
 21 22  1  0
 22 23  2  0
 23 24  1  0
 23 25  1  0
 25 26  2  0
 19  6  1  0
 26 20  1  0
 17 11  1  0
M  END
>  <ChemBL_ID>  (383) 
CHEMBL129159

>  <Compound_Key>  (383) 
(R)-(+)-3a,(R)-(+)-HP-II

>  <Ki>  (383) 
31.0

>  <database>  (383) 
CHEMBL

>  <Assay_ChEMBL_ID>  (383) 
CHEMBL846100

>  <Document_ChEMBL_ID>  (383) 
CHEMBL1126960

$$$$

     RDKit          2D

 27 30  0  0  0  0  0  0  0  0999 V2000
   -0.0731   -0.6544    0.0000 O   0  0  0  0  0  0  0  0  0  0  0  0
   -0.0374    0.8452    0.0000 C   0  0  0  0  0  0  0  0  0  0  0  0
    1.2792    1.5640    0.0000 N   0  0  0  0  0  0  0  0  0  0  0  0
    2.5600    0.7832    0.0000 C   0  0  0  0  0  0  0  0  0  0  0  0
    2.5242   -0.7163    0.0000 C   0  0  0  0  0  0  0  0  0  0  0  0
    3.8050   -1.4971    0.0000 C   0  0  0  0  0  0  0  0  0  0  0  0
    5.1216   -0.7782    0.0000 C   0  0  0  0  0  0  0  0  0  0  0  0
    6.4024   -1.5590    0.0000 Cl  0  0  0  0  0  0  0  0  0  0  0  0
    5.1573    0.7213    0.0000 C   0  0  0  0  0  0  0  0  0  0  0  0
    6.4738    1.4402    0.0000 Cl  0  0  0  0  0  0  0  0  0  0  0  0
    3.8765    1.5021    0.0000 C   0  0  0  0  0  0  0  0  0  0  0  0
   -1.3182    1.6259    0.0000 O   0  0  0  0  0  0  0  0  0  0  0  0
   -2.6347    0.9071    0.0000 C   0  0  0  0  0  0  0  0  0  0  0  0
   -2.6705   -0.5925    0.0000 C   0  0  0  0  0  0  0  0  0  0  0  0
   -3.9870   -1.3114    0.0000 C   0  0  0  0  0  0  0  0  0  0  0  0
   -5.4612   -1.5882    0.0000 C   0  0  0  0  0  0  0  0  0  0  0  0
   -6.1801   -0.2716    0.0000 C   0  0  0  0  0  0  0  0  0  0  0  0
   -5.1501    0.8189    0.0000 C   0  0  0  0  0  0  0  0  0  0  0  0
   -3.9155    1.6878    0.0000 C   0  0  0  0  0  0  0  0  0  0  0  0
   -3.7947    0.1763    0.0000 N   0  0  0  0  0  0  0  0  0  0  0  0
   -2.4782    0.8951    0.0000 C   0  0  0  0  0  0  0  0  0  0  0  0
   -1.1974    0.1144    0.0000 C   0  0  0  0  0  0  0  0  0  0  0  0
   -1.2331   -1.3852    0.0000 C   0  0  0  0  0  0  0  0  0  0  0  0
    0.0477   -2.1659    0.0000 C   0  0  0  0  0  0  0  0  0  0  0  0
    1.3642   -1.4471    0.0000 C   0  0  0  0  0  0  0  0  0  0  0  0
    1.4000    0.0525    0.0000 C   0  0  0  0  0  0  0  0  0  0  0  0
    0.1192    0.8332    0.0000 C   0  0  0  0  0  0  0  0  0  0  0  0
  1  2  2  0
  2  3  1  0
  3  4  1  0
  4  5  2  0
  5  6  1  0
  6  7  2  0
  7  8  1  0
  7  9  1  0
  9 10  1  0
  9 11  2  0
  2 12  1  0
 12 13  1  0
 13 14  1  0
 14 15  1  0
 15 16  1  0
 16 17  1  0
 17 18  1  0
 18 19  1  0
 18 20  1  0
 20 21  1  0
 21 22  1  0
 22 23  2  0
 23 24  1  0
 24 25  2  0
 25 26  1  0
 26 27  2  0
 11  4  1  0
 19 13  1  0
 27 22  1  0
 20 15  1  0
M  END
>  <Ki>  (384) 
28.3

>  <database>  (384) 
SRSLDB

$$$$

     RDKit          2D

 34 38  0  0  0  0  0  0  0  0999 V2000
   11.0572   -0.6355    0.0000 C   0  0  0  0  0  0  0  0  0  0  0  0
   10.2642    0.6378    0.0000 O   0  0  0  0  0  0  0  0  0  0  0  0
    8.7650    0.5876    0.0000 C   0  0  0  0  0  0  0  0  0  0  0  0
    7.9720    1.8608    0.0000 C   0  0  0  0  0  0  0  0  0  0  0  0
    6.4728    1.8106    0.0000 C   0  0  0  0  0  0  0  0  0  0  0  0
    5.7667    0.4872    0.0000 C   0  0  0  0  0  0  0  0  0  0  0  0
    6.5597   -0.7860    0.0000 C   0  0  0  0  0  0  0  0  0  0  0  0
    8.0589   -0.7358    0.0000 C   0  0  0  0  0  0  0  0  0  0  0  0
    8.8519   -2.0090    0.0000 O   0  0  0  0  0  0  0  0  0  0  0  0
    8.1458   -3.3324    0.0000 C   0  0  0  0  0  0  0  0  0  0  0  0
    5.5939   -1.9337    0.0000 C   0  0  0  0  0  0  0  0  0  0  0  0
    4.2039   -1.3697    0.0000 C   0  0  0  0  0  0  0  0  0  0  0  0
    4.3107    0.1264    0.0000 C   0  0  0  0  0  0  0  0  0  0  0  0
    3.1631    1.0923    0.0000 N   0  0  0  0  0  0  0  0  0  0  0  0
    1.7528    0.5813    0.0000 C   0  0  0  0  0  0  0  0  0  0  0  0
    0.6051    1.5471    0.0000 C   0  0  0  0  0  0  0  0  0  0  0  0
   -0.8052    1.0362    0.0000 C   0  0  0  0  0  0  0  0  0  0  0  0
   -1.9528    2.0020    0.0000 C   0  0  0  0  0  0  0  0  0  0  0  0
   -3.3631    1.4910    0.0000 C   0  0  0  0  0  0  0  0  0  0  0  0
   -3.7786    0.0497    0.0000 C   0  0  0  0  0  0  0  0  0  0  0  0
   -5.2778   -0.0005    0.0000 N   0  0  0  0  0  0  0  0  0  0  0  0
   -6.1184   -1.2428    0.0000 C   0  0  0  0  0  0  0  0  0  0  0  0
   -7.6146   -1.1360    0.0000 C   0  0  0  0  0  0  0  0  0  0  0  0
   -8.4552   -2.3783    0.0000 C   0  0  0  0  0  0  0  0  0  0  0  0
   -7.7996   -3.7275    0.0000 C   0  0  0  0  0  0  0  0  0  0  0  0
   -8.6402   -4.9698    0.0000 F   0  0  0  0  0  0  0  0  0  0  0  0
   -6.3034   -3.8343    0.0000 C   0  0  0  0  0  0  0  0  0  0  0  0
   -5.4628   -2.5919    0.0000 C   0  0  0  0  0  0  0  0  0  0  0  0
   -5.7888    1.4098    0.0000 C   0  0  0  0  0  0  0  0  0  0  0  0
   -7.1788    1.9737    0.0000 C   0  0  0  0  0  0  0  0  0  0  0  0
   -7.3854    3.4595    0.0000 C   0  0  0  0  0  0  0  0  0  0  0  0
   -6.2020    4.3812    0.0000 C   0  0  0  0  0  0  0  0  0  0  0  0
   -4.8121    3.8173    0.0000 C   0  0  0  0  0  0  0  0  0  0  0  0
   -4.6054    2.3316    0.0000 C   0  0  0  0  0  0  0  0  0  0  0  0
  1  2  1  0
  2  3  1  0
  3  4  2  0
  4  5  1  0
  5  6  2  0
  6  7  1  0
  7  8  2  0
  8  9  1  0
  9 10  1  0
  7 11  1  0
 11 12  1  0
 12 13  1  0
 13 14  1  0
 14 15  1  0
 15 16  1  0
 16 17  1  0
 17 18  1  0
 18 19  1  0
 19 20  2  0
 20 21  1  0
 21 22  1  0
 22 23  2  0
 23 24  1  0
 24 25  2  0
 25 26  1  0
 25 27  1  0
 27 28  2  0
 21 29  1  0
 29 30  2  0
 30 31  1  0
 31 32  2  0
 32 33  1  0
 33 34  2  0
  8  3  1  0
 34 19  1  0
 13  6  1  0
 28 22  1  0
 34 29  1  0
M  END
>  <Ki>  (385) 
115.0

>  <database>  (385) 
SRSLDB

$$$$

     RDKit          2D

 27 30  0  0  0  0  0  0  0  0999 V2000
    9.2345   -3.2812    0.0000 C   0  0  0  0  0  0  0  0  0  0  0  0
    7.8333   -2.7457    0.0000 C   0  0  0  0  0  0  0  0  0  0  0  0
    7.5965   -1.2645    0.0000 C   0  0  0  0  0  0  0  0  0  0  0  0
    6.1953   -0.7290    0.0000 C   0  0  0  0  0  0  0  0  0  0  0  0
    5.0310   -1.6747    0.0000 C   0  0  0  0  0  0  0  0  0  0  0  0
    3.6299   -1.1392    0.0000 C   0  0  0  0  0  0  0  0  0  0  0  0
    3.3930    0.3420    0.0000 C   0  0  0  0  0  0  0  0  0  0  0  0
    4.5574    1.2877    0.0000 C   0  0  0  0  0  0  0  0  0  0  0  0
    5.9585    0.7522    0.0000 C   0  0  0  0  0  0  0  0  0  0  0  0
    4.0178    2.6873    0.0000 O   0  0  0  0  0  0  0  0  0  0  0  0
    2.5199    2.6065    0.0000 C   0  0  0  0  0  0  0  0  0  0  0  0
    1.5742    3.7709    0.0000 O   0  0  0  0  0  0  0  0  0  0  0  0
    2.1338    1.1571    0.0000 N   0  0  0  0  0  0  0  0  0  0  0  0
    0.7342    0.6175    0.0000 C   0  0  0  0  0  0  0  0  0  0  0  0
   -0.4329    1.5597    0.0000 C   0  0  0  0  0  0  0  0  0  0  0  0
   -1.8324    1.0201    0.0000 N   0  0  0  0  0  0  0  0  0  0  0  0
   -2.9995    1.9624    0.0000 C   0  0  0  0  0  0  0  0  0  0  0  0
   -4.3991    1.4228    0.0000 C   0  0  0  0  0  0  0  0  0  0  0  0
   -4.6316   -0.0591    0.0000 N   0  0  0  0  0  0  0  0  0  0  0  0
   -6.0312   -0.5987    0.0000 C   0  0  0  0  0  0  0  0  0  0  0  0
   -7.1983    0.3436    0.0000 C   0  0  0  0  0  0  0  0  0  0  0  0
   -8.5979   -0.1960    0.0000 C   0  0  0  0  0  0  0  0  0  0  0  0
   -8.8303   -1.6779    0.0000 C   0  0  0  0  0  0  0  0  0  0  0  0
   -7.6632   -2.6202    0.0000 C   0  0  0  0  0  0  0  0  0  0  0  0
   -6.2636   -2.0806    0.0000 C   0  0  0  0  0  0  0  0  0  0  0  0
   -3.4645   -1.0013    0.0000 C   0  0  0  0  0  0  0  0  0  0  0  0
   -2.0649   -0.4617    0.0000 C   0  0  0  0  0  0  0  0  0  0  0  0
  1  2  1  0
  2  3  1  0
  3  4  1  0
  4  5  2  0
  5  6  1  0
  6  7  2  0
  7  8  1  0
  8  9  2  0
  8 10  1  0
 10 11  1  0
 11 12  2  0
 11 13  1  0
 13 14  1  0
 14 15  1  0
 15 16  1  0
 16 17  1  0
 17 18  1  0
 18 19  1  0
 19 20  1  0
 20 21  1  0
 21 22  1  0
 22 23  1  0
 23 24  1  0
 24 25  1  0
 19 26  1  0
 26 27  1  0
  9  4  1  0
 27 16  1  0
 13  7  1  0
 25 20  1  0
M  END
>  <Ki>  (386) 
4.02

>  <database>  (386) 
SRSLDB

$$$$

     RDKit          2D

 25 28  0  0  0  0  0  0  0  0999 V2000
   -6.0693    2.8109    0.0000 O   0  0  0  0  0  0  0  0  0  0  0  0
   -5.5808    1.3927    0.0000 C   0  0  0  0  0  0  0  0  0  0  0  0
   -6.4410    0.1639    0.0000 S   0  0  0  0  0  0  0  0  0  0  0  0
   -5.5381   -1.0340    0.0000 C   0  0  0  0  0  0  0  0  0  0  0  0
   -5.8241   -2.5065    0.0000 C   0  0  0  0  0  0  0  0  0  0  0  0
   -4.6919   -3.4904    0.0000 C   0  0  0  0  0  0  0  0  0  0  0  0
   -3.2737   -3.0018    0.0000 C   0  0  0  0  0  0  0  0  0  0  0  0
   -2.9877   -1.5294    0.0000 C   0  0  0  0  0  0  0  0  0  0  0  0
   -4.1199   -0.5454    0.0000 C   0  0  0  0  0  0  0  0  0  0  0  0
   -4.1462    0.9543    0.0000 N   0  0  0  0  0  0  0  0  0  0  0  0
   -2.9484    1.8572    0.0000 C   0  0  0  0  0  0  0  0  0  0  0  0
   -1.5676    1.2713    0.0000 C   0  0  0  0  0  0  0  0  0  0  0  0
   -0.3698    2.1742    0.0000 C   0  0  0  0  0  0  0  0  0  0  0  0
    1.0111    1.5883    0.0000 N   0  0  0  0  0  0  0  0  0  0  0  0
    1.1941    0.0995    0.0000 C   0  0  0  0  0  0  0  0  0  0  0  0
    2.5749   -0.4864    0.0000 C   0  0  0  0  0  0  0  0  0  0  0  0
    3.7728    0.4165    0.0000 N   0  0  0  0  0  0  0  0  0  0  0  0
    5.1536   -0.1694    0.0000 C   0  0  0  0  0  0  0  0  0  0  0  0
    5.3366   -1.6582    0.0000 C   0  0  0  0  0  0  0  0  0  0  0  0
    6.7175   -2.2441    0.0000 C   0  0  0  0  0  0  0  0  0  0  0  0
    7.9153   -1.3412    0.0000 C   0  0  0  0  0  0  0  0  0  0  0  0
    7.7323    0.1476    0.0000 C   0  0  0  0  0  0  0  0  0  0  0  0
    6.3514    0.7335    0.0000 C   0  0  0  0  0  0  0  0  0  0  0  0
    3.5898    1.9053    0.0000 C   0  0  0  0  0  0  0  0  0  0  0  0
    2.2089    2.4912    0.0000 C   0  0  0  0  0  0  0  0  0  0  0  0
  1  2  2  0
  2  3  1  0
  3  4  1  0
  4  5  2  0
  5  6  1  0
  6  7  2  0
  7  8  1  0
  8  9  2  0
  9 10  1  0
 10 11  1  0
 11 12  1  0
 12 13  1  0
 13 14  1  0
 14 15  1  0
 15 16  1  0
 16 17  1  0
 17 18  1  0
 18 19  1  0
 19 20  1  0
 20 21  1  0
 21 22  1  0
 22 23  1  0
 17 24  1  0
 24 25  1  0
 10  2  1  0
 25 14  1  0
  9  4  1  0
 23 18  1  0
M  END
>  <ChemBL_ID>  (387) 
CHEMBL273084

>  <Ki>  (387) 
3.05

>  <database>  (387) 
SRSLDB

$$$$

     RDKit          2D

 31 34  0  0  0  0  0  0  0  0999 V2000
   10.6686   -3.0677    0.0000 C   0  0  0  0  0  0  0  0  0  0  0  0
    9.2535   -2.5704    0.0000 C   0  0  0  0  0  0  0  0  0  0  0  0
    8.1152   -3.5473    0.0000 O   0  0  0  0  0  0  0  0  0  0  0  0
    8.9766   -1.0961    0.0000 N   0  0  0  0  0  0  0  0  0  0  0  0
    7.5614   -0.5988    0.0000 C   0  0  0  0  0  0  0  0  0  0  0  0
    6.4232   -1.5757    0.0000 C   0  0  0  0  0  0  0  0  0  0  0  0
    5.0080   -1.0784    0.0000 C   0  0  0  0  0  0  0  0  0  0  0  0
    4.7311    0.3959    0.0000 C   0  0  0  0  0  0  0  0  0  0  0  0
    5.8694    1.3727    0.0000 C   0  0  0  0  0  0  0  0  0  0  0  0
    7.2846    0.8754    0.0000 C   0  0  0  0  0  0  0  0  0  0  0  0
    5.2921    2.7572    0.0000 O   0  0  0  0  0  0  0  0  0  0  0  0
    3.7970    2.6359    0.0000 C   0  0  0  0  0  0  0  0  0  0  0  0
    2.8201    3.7742    0.0000 O   0  0  0  0  0  0  0  0  0  0  0  0
    3.4503    1.1765    0.0000 N   0  0  0  0  0  0  0  0  0  0  0  0
    2.0659    0.5992    0.0000 C   0  0  0  0  0  0  0  0  0  0  0  0
    0.8737    1.5095    0.0000 C   0  0  0  0  0  0  0  0  0  0  0  0
   -0.5108    0.9322    0.0000 C   0  0  0  0  0  0  0  0  0  0  0  0
   -1.7030    1.8425    0.0000 C   0  0  0  0  0  0  0  0  0  0  0  0
   -3.0874    1.2652    0.0000 N   0  0  0  0  0  0  0  0  0  0  0  0
   -4.2796    2.1755    0.0000 C   0  0  0  0  0  0  0  0  0  0  0  0
   -5.6641    1.5981    0.0000 C   0  0  0  0  0  0  0  0  0  0  0  0
   -5.8563    0.1105    0.0000 N   0  0  0  0  0  0  0  0  0  0  0  0
   -7.2408   -0.4668    0.0000 C   0  0  0  0  0  0  0  0  0  0  0  0
   -8.4330    0.4435    0.0000 C   0  0  0  0  0  0  0  0  0  0  0  0
   -9.8174   -0.1339    0.0000 C   0  0  0  0  0  0  0  0  0  0  0  0
  -10.0097   -1.6215    0.0000 C   0  0  0  0  0  0  0  0  0  0  0  0
  -11.3941   -2.1988    0.0000 F   0  0  0  0  0  0  0  0  0  0  0  0
   -8.8175   -2.5318    0.0000 C   0  0  0  0  0  0  0  0  0  0  0  0
   -7.4330   -1.9545    0.0000 C   0  0  0  0  0  0  0  0  0  0  0  0
   -4.6641   -0.7998    0.0000 C   0  0  0  0  0  0  0  0  0  0  0  0
   -3.2797   -0.2225    0.0000 C   0  0  0  0  0  0  0  0  0  0  0  0
  1  2  1  0
  2  3  2  0
  2  4  1  0
  4  5  1  0
  5  6  2  0
  6  7  1  0
  7  8  2  0
  8  9  1  0
  9 10  2  0
  9 11  1  0
 11 12  1  0
 12 13  2  0
 12 14  1  0
 14 15  1  0
 15 16  1  0
 16 17  1  0
 17 18  1  0
 18 19  1  0
 19 20  1  0
 20 21  1  0
 21 22  1  0
 22 23  1  0
 23 24  2  0
 24 25  1  0
 25 26  2  0
 26 27  1  0
 26 28  1  0
 28 29  2  0
 22 30  1  0
 30 31  1  0
 10  5  1  0
 31 19  1  0
 14  8  1  0
 29 23  1  0
M  END
>  <Ki>  (388) 
48.13

>  <database>  (388) 
SRSLDB

$$$$

     RDKit          2D

 28 31  0  0  0  0  0  0  0  0999 V2000
   -9.4412   -0.7941    0.0000 C   0  0  0  0  0  0  0  0  0  0  0  0
   -8.0048   -1.2261    0.0000 O   0  0  0  0  0  0  0  0  0  0  0  0
   -6.9124   -0.1981    0.0000 C   0  0  0  0  0  0  0  0  0  0  0  0
   -7.2565    1.2619    0.0000 C   0  0  0  0  0  0  0  0  0  0  0  0
   -6.1642    2.2899    0.0000 C   0  0  0  0  0  0  0  0  0  0  0  0
   -4.7277    1.8579    0.0000 C   0  0  0  0  0  0  0  0  0  0  0  0
   -4.3836    0.3979    0.0000 C   0  0  0  0  0  0  0  0  0  0  0  0
   -2.9472   -0.0341    0.0000 C   0  0  0  0  0  0  0  0  0  0  0  0
   -1.8549    0.9939    0.0000 N   0  0  0  0  0  0  0  0  0  0  0  0
   -0.4184    0.5619    0.0000 C   0  0  0  0  0  0  0  0  0  0  0  0
   -0.0743   -0.8981    0.0000 O   0  0  0  0  0  0  0  0  0  0  0  0
    0.6739    1.5899    0.0000 C   0  0  0  0  0  0  0  0  0  0  0  0
    2.1104    1.1579    0.0000 N   0  0  0  0  0  0  0  0  0  0  0  0
    2.4545   -0.3021    0.0000 C   0  0  0  0  0  0  0  0  0  0  0  0
    3.8909   -0.7342    0.0000 C   0  0  0  0  0  0  0  0  0  0  0  0
    4.9833    0.2938    0.0000 N   0  0  0  0  0  0  0  0  0  0  0  0
    6.4197   -0.1382    0.0000 C   0  0  0  0  0  0  0  0  0  0  0  0
    6.7638   -1.5982    0.0000 C   0  0  0  0  0  0  0  0  0  0  0  0
    8.2003   -2.0302    0.0000 C   0  0  0  0  0  0  0  0  0  0  0  0
    9.2926   -1.0022    0.0000 C   0  0  0  0  0  0  0  0  0  0  0  0
    8.9485    0.4578    0.0000 C   0  0  0  0  0  0  0  0  0  0  0  0
    7.5121    0.8898    0.0000 C   0  0  0  0  0  0  0  0  0  0  0  0
    4.6392    1.7538    0.0000 C   0  0  0  0  0  0  0  0  0  0  0  0
    3.2027    2.1858    0.0000 C   0  0  0  0  0  0  0  0  0  0  0  0
   -2.6031   -1.4941    0.0000 C   0  0  0  0  0  0  0  0  0  0  0  0
   -3.6955   -2.5221    0.0000 C   0  0  0  0  0  0  0  0  0  0  0  0
   -5.1319   -2.0901    0.0000 C   0  0  0  0  0  0  0  0  0  0  0  0
   -5.4760   -0.6301    0.0000 C   0  0  0  0  0  0  0  0  0  0  0  0
  1  2  1  0
  2  3  1  0
  3  4  2  0
  4  5  1  0
  5  6  2  0
  6  7  1  0
  7  8  2  0
  8  9  1  0
  9 10  1  0
 10 11  2  0
 10 12  1  0
 12 13  1  0
 13 14  1  0
 14 15  1  0
 15 16  1  0
 16 17  1  0
 17 18  1  0
 18 19  1  0
 19 20  1  0
 20 21  1  0
 21 22  1  0
 16 23  1  0
 23 24  1  0
  8 25  1  0
 25 26  2  0
 26 27  1  0
 27 28  2  0
 28  3  1  0
 28  7  1  0
 24 13  1  0
 22 17  1  0
M  END
>  <ChemBL_ID>  (389) 
CHEMBL1672041

>  <Ki>  (389) 
23.2

>  <database>  (389) 
SRSLDB

$$$$

     RDKit          2D

 28 31  0  0  0  0  0  0  0  0999 V2000
    8.9329   -3.2389    0.0000 C   0  0  0  0  0  0  0  0  0  0  0  0
    7.5299   -2.7083    0.0000 C   0  0  0  0  0  0  0  0  0  0  0  0
    7.2879   -1.2279    0.0000 C   0  0  0  0  0  0  0  0  0  0  0  0
    8.4490   -0.2782    0.0000 O   0  0  0  0  0  0  0  0  0  0  0  0
    5.8849   -0.6973    0.0000 C   0  0  0  0  0  0  0  0  0  0  0  0
    4.7239   -1.6470    0.0000 C   0  0  0  0  0  0  0  0  0  0  0  0
    3.3209   -1.1163    0.0000 C   0  0  0  0  0  0  0  0  0  0  0  0
    3.0789    0.3640    0.0000 C   0  0  0  0  0  0  0  0  0  0  0  0
    4.2400    1.3137    0.0000 C   0  0  0  0  0  0  0  0  0  0  0  0
    5.6430    0.7831    0.0000 C   0  0  0  0  0  0  0  0  0  0  0  0
    3.6955    2.7114    0.0000 S   0  0  0  0  0  0  0  0  0  0  0  0
    2.1980    2.6256    0.0000 C   0  0  0  0  0  0  0  0  0  0  0  0
    1.2483    3.7866    0.0000 O   0  0  0  0  0  0  0  0  0  0  0  0
    1.8169    1.1748    0.0000 N   0  0  0  0  0  0  0  0  0  0  0  0
    0.4192    0.6303    0.0000 C   0  0  0  0  0  0  0  0  0  0  0  0
   -0.7512    1.5685    0.0000 C   0  0  0  0  0  0  0  0  0  0  0  0
   -2.1489    1.0241    0.0000 N   0  0  0  0  0  0  0  0  0  0  0  0
   -3.3192    1.9623    0.0000 C   0  0  0  0  0  0  0  0  0  0  0  0
   -4.7169    1.4179    0.0000 C   0  0  0  0  0  0  0  0  0  0  0  0
   -4.9443   -0.0648    0.0000 N   0  0  0  0  0  0  0  0  0  0  0  0
   -6.3420   -0.6092    0.0000 C   0  0  0  0  0  0  0  0  0  0  0  0
   -7.5123    0.3290    0.0000 C   0  0  0  0  0  0  0  0  0  0  0  0
   -8.9101   -0.2155    0.0000 C   0  0  0  0  0  0  0  0  0  0  0  0
   -9.1374   -1.6981    0.0000 C   0  0  0  0  0  0  0  0  0  0  0  0
   -7.9670   -2.6364    0.0000 C   0  0  0  0  0  0  0  0  0  0  0  0
   -6.5693   -2.0919    0.0000 C   0  0  0  0  0  0  0  0  0  0  0  0
   -3.7739   -1.0030    0.0000 C   0  0  0  0  0  0  0  0  0  0  0  0
   -2.3762   -0.4586    0.0000 C   0  0  0  0  0  0  0  0  0  0  0  0
  1  2  1  0
  2  3  1  0
  3  4  2  0
  3  5  1  0
  5  6  2  0
  6  7  1  0
  7  8  2  0
  8  9  1  0
  9 10  2  0
  9 11  1  0
 11 12  1  0
 12 13  2  0
 12 14  1  0
 14 15  1  0
 15 16  1  0
 16 17  1  0
 17 18  1  0
 18 19  1  0
 19 20  1  0
 20 21  1  0
 21 22  1  0
 22 23  1  0
 23 24  1  0
 24 25  1  0
 25 26  1  0
 20 27  1  0
 27 28  1  0
 10  5  1  0
 28 17  1  0
 14  8  1  0
 26 21  1  0
M  END
>  <Ki>  (390) 
3.73

>  <database>  (390) 
SRSLDB

$$$$

     RDKit          2D

 22 27  0  0  0  0  0  0  0  0999 V2000
    0.9514   -2.3806    0.0000 C   0  0  0  0  0  0  0  0  0  0  0  0
    0.4014   -0.9850    0.0000 N   0  0  0  0  0  0  0  0  0  0  0  0
    1.3350    0.1890    0.0000 C   0  0  0  0  0  0  0  0  0  0  0  0
    2.8186   -0.0324    0.0000 C   0  0  0  0  0  0  0  0  0  0  0  0
    3.3686   -1.4279    0.0000 C   0  0  0  0  0  0  0  0  0  0  0  0
    4.8521   -1.6494    0.0000 C   0  0  0  0  0  0  0  0  0  0  0  0
    5.7857   -0.4753    0.0000 C   0  0  0  0  0  0  0  0  0  0  0  0
    5.2357    0.9202    0.0000 C   0  0  0  0  0  0  0  0  0  0  0  0
    6.1693    2.0943    0.0000 F   0  0  0  0  0  0  0  0  0  0  0  0
    3.7521    1.1417    0.0000 C   0  0  0  0  0  0  0  0  0  0  0  0
   -1.8647    0.3973    0.0000 C   0  0  0  0  0  0  0  0  0  0  0  0
   -2.1333   -1.8336    0.0000 C   0  0  0  0  0  0  0  0  0  0  0  0
   -1.4642   -0.4911    0.0000 C   0  0  0  0  0  0  0  0  0  0  0  0
   -2.7946   -1.1840    0.0000 C   0  0  0  0  0  0  0  0  0  0  0  0
   -3.8647   -0.1328    0.0000 C   0  0  0  0  0  0  0  0  0  0  0  0
   -3.6169   -1.6122    0.0000 C   0  0  0  0  0  0  0  0  0  0  0  0
   -3.7660    0.1591    0.0000 C   0  0  0  0  0  0  0  0  0  0  0  0
   -5.7933   -0.0603    0.0000 O   0  0  0  0  0  0  0  0  0  0  0  0
   -2.9742    2.6933    0.0000 C   0  0  0  0  0  0  0  0  0  0  0  0
   -3.1956    1.2097    0.0000 C   0  0  0  0  0  0  0  0  0  0  0  0
   -1.7121    0.9883    0.0000 C   0  0  0  0  0  0  0  0  0  0  0  0
   -1.4906    2.4718    0.0000 C   0  0  0  0  0  0  0  0  0  0  0  0
  1  2  1  0
  2  3  1  0
  3  4  1  0
  4  5  2  0
  5  6  1  0
  6  7  2  0
  7  8  1  0
  8  9  1  0
  8 10  2  0
 11  2  1  6
 11 12  1  0
 12 13  1  0
 13 14  1  0
 14 15  1  0
 15 16  1  0
 16 17  1  0
 17 18  2  0
 17 19  1  0
 19 20  1  0
 20 21  1  0
 21 22  1  0
 10  4  1  0
 22 11  1  0
 16 12  1  0
 22 19  1  0
 21 13  1  0
 20 15  1  0
M  END
>  <ChemBL_ID>  (391) 
CHEMBL2432041

>  <Ki>  (391) 
168.0

>  <database>  (391) 
SRSLDB

$$$$

     RDKit          2D

 27 30  0  0  0  0  0  0  0  0999 V2000
   -7.2431    2.7711    0.0000 O   0  0  0  0  0  0  0  0  0  0  0  0
   -6.8039    1.3369    0.0000 C   0  0  0  0  0  0  0  0  0  0  0  0
   -7.7061    0.1385    0.0000 O   0  0  0  0  0  0  0  0  0  0  0  0
   -6.8452   -1.0898    0.0000 C   0  0  0  0  0  0  0  0  0  0  0  0
   -7.1820   -2.5515    0.0000 C   0  0  0  0  0  0  0  0  0  0  0  0
   -6.0845   -3.5740    0.0000 C   0  0  0  0  0  0  0  0  0  0  0  0
   -4.6502   -3.1348    0.0000 C   0  0  0  0  0  0  0  0  0  0  0  0
   -4.3134   -1.6731    0.0000 C   0  0  0  0  0  0  0  0  0  0  0  0
   -5.4109   -0.6506    0.0000 C   0  0  0  0  0  0  0  0  0  0  0  0
   -5.3854    0.8492    0.0000 N   0  0  0  0  0  0  0  0  0  0  0  0
   -4.1571    1.7101    0.0000 C   0  0  0  0  0  0  0  0  0  0  0  0
   -2.7973    1.0768    0.0000 C   0  0  0  0  0  0  0  0  0  0  0  0
   -1.5690    1.9377    0.0000 C   0  0  0  0  0  0  0  0  0  0  0  0
   -0.2093    1.3044    0.0000 C   0  0  0  0  0  0  0  0  0  0  0  0
    1.0191    2.1653    0.0000 C   0  0  0  0  0  0  0  0  0  0  0  0
    2.3788    1.5320    0.0000 N   0  0  0  0  0  0  0  0  0  0  0  0
    2.5102    0.0377    0.0000 C   0  0  0  0  0  0  0  0  0  0  0  0
    3.8700   -0.5956    0.0000 C   0  0  0  0  0  0  0  0  0  0  0  0
    5.0983    0.2653    0.0000 N   0  0  0  0  0  0  0  0  0  0  0  0
    6.4581   -0.3680    0.0000 C   0  0  0  0  0  0  0  0  0  0  0  0
    6.5895   -1.8622    0.0000 C   0  0  0  0  0  0  0  0  0  0  0  0
    7.9492   -2.4955    0.0000 C   0  0  0  0  0  0  0  0  0  0  0  0
    9.1776   -1.6346    0.0000 C   0  0  0  0  0  0  0  0  0  0  0  0
    9.0462   -0.1404    0.0000 C   0  0  0  0  0  0  0  0  0  0  0  0
    7.6864    0.4929    0.0000 C   0  0  0  0  0  0  0  0  0  0  0  0
    4.9669    1.7596    0.0000 C   0  0  0  0  0  0  0  0  0  0  0  0
    3.6072    2.3929    0.0000 C   0  0  0  0  0  0  0  0  0  0  0  0
  1  2  2  0
  2  3  1  0
  3  4  1  0
  4  5  2  0
  5  6  1  0
  6  7  2  0
  7  8  1  0
  8  9  2  0
  9 10  1  0
 10 11  1  0
 11 12  1  0
 12 13  1  0
 13 14  1  0
 14 15  1  0
 15 16  1  0
 16 17  1  0
 17 18  1  0
 18 19  1  0
 19 20  1  0
 20 21  1  0
 21 22  1  0
 22 23  1  0
 23 24  1  0
 24 25  1  0
 19 26  1  0
 26 27  1  0
 10  2  1  0
 27 16  1  0
  9  4  1  0
 25 20  1  0
M  END
>  <ChemBL_ID>  (392) 
CHEMBL406082

>  <Ki>  (392) 
5.89

>  <database>  (392) 
SRSLDB

$$$$

     RDKit          2D

 22 24  0  0  0  0  0  0  0  0999 V2000
   -4.6226   -2.0721    0.0000 C   0  0  0  0  0  0  0  0  0  0  0  0
   -5.2103   -0.6920    0.0000 C   0  0  0  0  0  0  0  0  0  0  0  0
   -6.4674   -1.5104    0.0000 C   0  0  0  0  0  0  0  0  0  0  0  0
   -6.2346    0.4038    0.0000 C   0  0  0  0  0  0  0  0  0  0  0  0
   -5.7977    1.8388    0.0000 C   0  0  0  0  0  0  0  0  0  0  0  0
   -4.3365    2.1779    0.0000 C   0  0  0  0  0  0  0  0  0  0  0  0
   -3.3122    1.0821    0.0000 N   0  0  0  0  0  0  0  0  0  0  0  0
   -1.8511    1.4212    0.0000 C   0  0  0  0  0  0  0  0  0  0  0  0
   -0.8268    0.3253    0.0000 C   0  0  0  0  0  0  0  0  0  0  0  0
    0.6344    0.6644    0.0000 C   0  0  0  0  0  0  0  0  0  0  0  0
    1.6586   -0.4315    0.0000 C   0  0  0  0  0  0  0  0  0  0  0  0
    1.2217   -1.8664    0.0000 C   0  0  0  0  0  0  0  0  0  0  0  0
    2.2460   -2.9623    0.0000 C   0  0  0  0  0  0  0  0  0  0  0  0
    3.7071   -2.6232    0.0000 C   0  0  0  0  0  0  0  0  0  0  0  0
    4.1440   -1.1882    0.0000 C   0  0  0  0  0  0  0  0  0  0  0  0
    5.6052   -0.8491    0.0000 C   0  0  0  0  0  0  0  0  0  0  0  0
    6.0421    0.5859    0.0000 C   0  0  0  0  0  0  0  0  0  0  0  0
    5.0179    1.6817    0.0000 C   0  0  0  0  0  0  0  0  0  0  0  0
    5.4548    3.1167    0.0000 O   0  0  0  0  0  0  0  0  0  0  0  0
    3.5567    1.3426    0.0000 C   0  0  0  0  0  0  0  0  0  0  0  0
    3.1198   -0.0923    0.0000 C   0  0  0  0  0  0  0  0  0  0  0  0
   -3.7491   -0.3529    0.0000 C   0  0  0  0  0  0  0  0  0  0  0  0
  1  2  1  0
  2  3  1  0
  2  4  1  0
  4  5  1  0
  5  6  1  0
  6  7  1  0
  7  8  1  0
  8  9  1  0
  9 10  1  0
 10 11  1  0
 11 12  2  0
 12 13  1  0
 13 14  2  0
 14 15  1  0
 15 16  2  0
 16 17  1  0
 17 18  2  0
 18 19  1  0
 18 20  1  0
 20 21  2  0
  7 22  1  0
 22  2  1  0
 21 11  1  0
 21 15  1  0
M  END
>  <ChemBL_ID>  (393) 
CHEMBL1196890

>  <Ki>  (393) 
412.0

>  <database>  (393) 
SRSLDB

$$$$

     RDKit          2D

 31 35  0  0  0  0  0  0  0  0999 V2000
  -11.6373    0.6236    0.0000 F   0  0  0  0  0  0  0  0  0  0  0  0
  -10.1582    0.3738    0.0000 C   0  0  0  0  0  0  0  0  0  0  0  0
   -9.2024    1.5299    0.0000 C   0  0  0  0  0  0  0  0  0  0  0  0
   -7.7233    1.2802    0.0000 C   0  0  0  0  0  0  0  0  0  0  0  0
   -7.2001   -0.1256    0.0000 C   0  0  0  0  0  0  0  0  0  0  0  0
   -5.7210   -0.3754    0.0000 N   0  0  0  0  0  0  0  0  0  0  0  0
   -5.1977   -1.7811    0.0000 C   0  0  0  0  0  0  0  0  0  0  0  0
   -3.7187   -2.0309    0.0000 C   0  0  0  0  0  0  0  0  0  0  0  0
   -2.7629   -0.8748    0.0000 N   0  0  0  0  0  0  0  0  0  0  0  0
   -1.2838   -1.1246    0.0000 C   0  0  0  0  0  0  0  0  0  0  0  0
   -0.3280    0.0315    0.0000 C   0  0  0  0  0  0  0  0  0  0  0  0
    1.1511   -0.2182    0.0000 C   0  0  0  0  0  0  0  0  0  0  0  0
    2.1069    0.9378    0.0000 C   0  0  0  0  0  0  0  0  0  0  0  0
    3.5859    0.6881    0.0000 N   0  0  0  0  0  0  0  0  0  0  0  0
    4.2533   -0.6553    0.0000 C   0  0  0  0  0  0  0  0  0  0  0  0
    5.7371   -0.4358    0.0000 C   0  0  0  0  0  0  0  0  0  0  0  0
    6.7869   -1.5072    0.0000 C   0  0  0  0  0  0  0  0  0  0  0  0
    8.2708   -1.2876    0.0000 C   0  0  0  0  0  0  0  0  0  0  0  0
    8.9381   -2.6310    0.0000 C   0  0  0  0  0  0  0  0  0  0  0  0
    7.8667   -3.6808    0.0000 O   0  0  0  0  0  0  0  0  0  0  0  0
    6.5372   -2.9863    0.0000 C   0  0  0  0  0  0  0  0  0  0  0  0
    5.9868    1.0433    0.0000 C   0  0  0  0  0  0  0  0  0  0  0  0
    7.2531    1.8474    0.0000 C   0  0  0  0  0  0  0  0  0  0  0  0
    7.1899    3.3461    0.0000 C   0  0  0  0  0  0  0  0  0  0  0  0
    5.8604    4.0406    0.0000 C   0  0  0  0  0  0  0  0  0  0  0  0
    4.5941    3.2365    0.0000 C   0  0  0  0  0  0  0  0  0  0  0  0
    4.6573    1.7379    0.0000 C   0  0  0  0  0  0  0  0  0  0  0  0
   -3.2861    0.5310    0.0000 C   0  0  0  0  0  0  0  0  0  0  0  0
   -4.7652    0.7807    0.0000 C   0  0  0  0  0  0  0  0  0  0  0  0
   -8.1559   -1.2817    0.0000 C   0  0  0  0  0  0  0  0  0  0  0  0
   -9.6349   -1.0319    0.0000 C   0  0  0  0  0  0  0  0  0  0  0  0
  1  2  1  0
  2  3  2  0
  3  4  1  0
  4  5  2  0
  5  6  1  0
  6  7  1  0
  7  8  1  0
  8  9  1  0
  9 10  1  0
 10 11  1  0
 11 12  1  0
 12 13  1  0
 13 14  1  0
 14 15  1  0
 15 16  2  0
 16 17  1  0
 17 18  1  0
 18 19  2  0
 19 20  1  0
 20 21  1  0
 16 22  1  0
 22 23  2  0
 23 24  1  0
 24 25  2  0
 25 26  1  0
 26 27  2  0
  9 28  1  0
 28 29  1  0
  5 30  1  0
 30 31  2  0
 31  2  1  0
 29  6  1  0
 27 14  1  0
 21 17  2  0
 27 22  1  0
M  END
>  <ChemBL_ID>  (394) 
CHEMBL1831168

>  <Ki>  (394) 
157.0

>  <database>  (394) 
SRSLDB

$$$$

     RDKit          2D

 33 37  0  0  0  0  0  0  0  0999 V2000
    5.7997    0.5524    0.0000 O   0  0  0  0  0  0  0  0  0  0  0  0
    4.5777   -0.3174    0.0000 C   0  0  0  0  0  0  0  0  0  0  0  0
    3.2134    0.3061    0.0000 N   0  0  0  0  0  0  0  0  0  0  0  0
    3.0711    1.7993    0.0000 C   0  0  0  0  0  0  0  0  0  0  0  0
    4.2932    2.6691    0.0000 C   0  0  0  0  0  0  0  0  0  0  0  0
    4.1510    4.1624    0.0000 C   0  0  0  0  0  0  0  0  0  0  0  0
    2.7867    4.7858    0.0000 C   0  0  0  0  0  0  0  0  0  0  0  0
    1.5646    3.9160    0.0000 C   0  0  0  0  0  0  0  0  0  0  0  0
    1.7068    2.4228    0.0000 C   0  0  0  0  0  0  0  0  0  0  0  0
    0.4848    1.5530    0.0000 C   0  0  0  0  0  0  0  0  0  0  0  0
   -0.8795    2.1764    0.0000 C   0  0  0  0  0  0  0  0  0  0  0  0
   -2.1016    1.3066    0.0000 N   0  0  0  0  0  0  0  0  0  0  0  0
   -3.4659    1.9301    0.0000 C   0  0  0  0  0  0  0  0  0  0  0  0
   -4.6880    1.0603    0.0000 C   0  0  0  0  0  0  0  0  0  0  0  0
   -4.5457   -0.4330    0.0000 C   0  0  0  0  0  0  0  0  0  0  0  0
   -5.7678   -1.3028    0.0000 C   0  0  0  0  0  0  0  0  0  0  0  0
   -7.1321   -0.6793    0.0000 C   0  0  0  0  0  0  0  0  0  0  0  0
   -8.3542   -1.5491    0.0000 C   0  0  0  0  0  0  0  0  0  0  0  0
   -8.2119   -3.0424    0.0000 C   0  0  0  0  0  0  0  0  0  0  0  0
   -6.8476   -3.6658    0.0000 C   0  0  0  0  0  0  0  0  0  0  0  0
   -5.6256   -2.7960    0.0000 C   0  0  0  0  0  0  0  0  0  0  0  0
   -3.1814   -1.0564    0.0000 C   0  0  0  0  0  0  0  0  0  0  0  0
   -1.9594   -0.1866    0.0000 C   0  0  0  0  0  0  0  0  0  0  0  0
   -1.0218    3.6696    0.0000 C   0  0  0  0  0  0  0  0  0  0  0  0
   -2.3861    4.2931    0.0000 O   0  0  0  0  0  0  0  0  0  0  0  0
    0.2003    4.5394    0.0000 C   0  0  0  0  0  0  0  0  0  0  0  0
    4.7199   -1.8106    0.0000 C   0  0  0  0  0  0  0  0  0  0  0  0
    3.4978   -2.6804    0.0000 C   0  0  0  0  0  0  0  0  0  0  0  0
    3.6401   -4.1736    0.0000 C   0  0  0  0  0  0  0  0  0  0  0  0
    5.0044   -4.7971    0.0000 C   0  0  0  0  0  0  0  0  0  0  0  0
    5.1466   -6.2903    0.0000 F   0  0  0  0  0  0  0  0  0  0  0  0
    6.2264   -3.9273    0.0000 C   0  0  0  0  0  0  0  0  0  0  0  0
    6.0842   -2.4341    0.0000 C   0  0  0  0  0  0  0  0  0  0  0  0
  1  2  2  0
  2  3  1  0
  3  4  1  0
  4  5  2  0
  5  6  1  0
  6  7  2  0
  7  8  1  0
  8  9  2  0
  9 10  1  0
 10 11  1  0
 11 12  1  1
 12 13  1  0
 13 14  1  0
 14 15  1  0
 15 16  1  0
 16 17  2  0
 17 18  1  0
 18 19  2  0
 19 20  1  0
 20 21  2  0
 15 22  1  0
 22 23  1  0
 11 24  1  0
 24 25  1  6
 24 26  1  0
  2 27  1  0
 27 28  2  0
 28 29  1  0
 29 30  2  0
 30 31  1  0
 30 32  1  0
 32 33  2  0
  9  4  1  0
 23 12  1  0
 33 27  1  0
 26  8  1  0
 21 16  1  0
M  END
>  <Ki>  (395) 
3623.0

>  <database>  (395) 
SRSLDB

$$$$

     RDKit          2D

 20 22  0  0  0  0  0  0  0  0999 V2000
   -5.4017   -1.6364    0.0000 C   0  0  0  0  0  0  0  0  0  0  0  0
   -4.9630   -0.2020    0.0000 C   0  0  0  0  0  0  0  0  0  0  0  0
   -6.4518   -0.0190    0.0000 C   0  0  0  0  0  0  0  0  0  0  0  0
   -5.0413    1.2960    0.0000 C   0  0  0  0  0  0  0  0  0  0  0  0
   -3.7832    2.1128    0.0000 C   0  0  0  0  0  0  0  0  0  0  0  0
   -2.4468    1.4316    0.0000 C   0  0  0  0  0  0  0  0  0  0  0  0
   -2.3684   -0.0663    0.0000 N   0  0  0  0  0  0  0  0  0  0  0  0
   -1.0320   -0.7475    0.0000 C   0  0  0  0  0  0  0  0  0  0  0  0
    0.2261    0.0694    0.0000 C   0  0  0  0  0  0  0  0  0  0  0  0
    1.5625   -0.6118    0.0000 C   0  0  0  0  0  0  0  0  0  0  0  0
    1.6409   -2.1097    0.0000 C   0  0  0  0  0  0  0  0  0  0  0  0
    2.9773   -2.7909    0.0000 C   0  0  0  0  0  0  0  0  0  0  0  0
    4.2354   -1.9741    0.0000 C   0  0  0  0  0  0  0  0  0  0  0  0
    4.1571   -0.4761    0.0000 C   0  0  0  0  0  0  0  0  0  0  0  0
    5.4152    0.3407    0.0000 C   0  0  0  0  0  0  0  0  0  0  0  0
    5.3368    1.8386    0.0000 C   0  0  0  0  0  0  0  0  0  0  0  0
    4.0004    2.5198    0.0000 C   0  0  0  0  0  0  0  0  0  0  0  0
    2.7423    1.7030    0.0000 C   0  0  0  0  0  0  0  0  0  0  0  0
    2.8206    0.2050    0.0000 C   0  0  0  0  0  0  0  0  0  0  0  0
   -3.6265   -0.8831    0.0000 C   0  0  0  0  0  0  0  0  0  0  0  0
  1  2  1  0
  2  3  1  0
  2  4  1  0
  4  5  1  0
  5  6  1  0
  6  7  1  0
  7  8  1  0
  8  9  1  0
  9 10  1  0
 10 11  1  0
 11 12  1  0
 12 13  1  0
 13 14  1  0
 14 15  2  0
 15 16  1  0
 16 17  2  0
 17 18  1  0
 18 19  2  0
  7 20  1  0
 20  2  1  0
 19 10  1  0
 19 14  1  0
M  END
>  <ChemBL_ID>  (396) 
CHEMBL129654

>  <Ki>  (396) 
41.1

>  <database>  (396) 
SRSLDB

$$$$

     RDKit          2D

 27 30  0  0  0  0  0  0  0  0999 V2000
    4.9017   -3.9786    0.0000 O   0  0  0  0  0  0  0  0  0  0  0  0
    5.2146   -2.5116    0.0000 C   0  0  0  0  0  0  0  0  0  0  0  0
    6.5853   -1.9024    0.0000 O   0  0  0  0  0  0  0  0  0  0  0  0
    6.4296   -0.4105    0.0000 C   0  0  0  0  0  0  0  0  0  0  0  0
    7.4341    0.7034    0.0000 C   0  0  0  0  0  0  0  0  0  0  0  0
    6.9716    2.1304    0.0000 C   0  0  0  0  0  0  0  0  0  0  0  0
    7.9761    3.2444    0.0000 Br  0  0  0  0  0  0  0  0  0  0  0  0
    5.5046    2.4433    0.0000 C   0  0  0  0  0  0  0  0  0  0  0  0
    4.5001    1.3293    0.0000 C   0  0  0  0  0  0  0  0  0  0  0  0
    4.9626   -0.0976    0.0000 C   0  0  0  0  0  0  0  0  0  0  0  0
    4.2117   -1.3961    0.0000 N   0  0  0  0  0  0  0  0  0  0  0  0
    2.7198   -1.5519    0.0000 C   0  0  0  0  0  0  0  0  0  0  0  0
    1.8390   -0.3377    0.0000 C   0  0  0  0  0  0  0  0  0  0  0  0
    0.3471   -0.4934    0.0000 C   0  0  0  0  0  0  0  0  0  0  0  0
   -0.5337    0.7207    0.0000 C   0  0  0  0  0  0  0  0  0  0  0  0
   -2.0256    0.5650    0.0000 N   0  0  0  0  0  0  0  0  0  0  0  0
   -2.9064    1.7792    0.0000 C   0  0  0  0  0  0  0  0  0  0  0  0
   -4.3983    1.6234    0.0000 C   0  0  0  0  0  0  0  0  0  0  0  0
   -5.0094    0.2536    0.0000 N   0  0  0  0  0  0  0  0  0  0  0  0
   -6.5013    0.0978    0.0000 C   0  0  0  0  0  0  0  0  0  0  0  0
   -7.3821    1.3120    0.0000 C   0  0  0  0  0  0  0  0  0  0  0  0
   -8.8740    1.1563    0.0000 C   0  0  0  0  0  0  0  0  0  0  0  0
   -9.4851   -0.2136    0.0000 C   0  0  0  0  0  0  0  0  0  0  0  0
   -8.6043   -1.4278    0.0000 C   0  0  0  0  0  0  0  0  0  0  0  0
   -7.1124   -1.2720    0.0000 C   0  0  0  0  0  0  0  0  0  0  0  0
   -4.1286   -0.9606    0.0000 C   0  0  0  0  0  0  0  0  0  0  0  0
   -2.6367   -0.8049    0.0000 C   0  0  0  0  0  0  0  0  0  0  0  0
  1  2  2  0
  2  3  1  0
  3  4  1  0
  4  5  2  0
  5  6  1  0
  6  7  1  0
  6  8  2  0
  8  9  1  0
  9 10  2  0
 10 11  1  0
 11 12  1  0
 12 13  1  0
 13 14  1  0
 14 15  1  0
 15 16  1  0
 16 17  1  0
 17 18  1  0
 18 19  1  0
 19 20  1  0
 20 21  1  0
 21 22  1  0
 22 23  1  0
 23 24  1  0
 24 25  1  0
 19 26  1  0
 26 27  1  0
 11  2  1  0
 27 16  1  0
 10  4  1  0
 25 20  1  0
M  END
>  <Ki>  (397) 
4.47

>  <database>  (397) 
SRSLDB

$$$$

     RDKit          2D

 31 34  0  0  0  0  0  0  0  0999 V2000
   -8.1595   -2.0467    0.0000 C   0  0  0  0  0  0  0  0  0  0  0  0
   -6.7579   -2.5810    0.0000 O   0  0  0  0  0  0  0  0  0  0  0  0
   -5.5943   -1.6343    0.0000 C   0  0  0  0  0  0  0  0  0  0  0  0
   -5.8324   -0.1534    0.0000 C   0  0  0  0  0  0  0  0  0  0  0  0
   -4.6688    0.7933    0.0000 C   0  0  0  0  0  0  0  0  0  0  0  0
   -3.2672    0.2590    0.0000 C   0  0  0  0  0  0  0  0  0  0  0  0
   -3.0292   -1.2220    0.0000 C   0  0  0  0  0  0  0  0  0  0  0  0
   -4.1927   -2.1687    0.0000 C   0  0  0  0  0  0  0  0  0  0  0  0
   -3.9547   -3.6497    0.0000 O   0  0  0  0  0  0  0  0  0  0  0  0
   -2.5531   -4.1840    0.0000 C   0  0  0  0  0  0  0  0  0  0  0  0
   -2.1037    1.2056    0.0000 C   0  0  0  0  0  0  0  0  0  0  0  0
   -2.3417    2.6866    0.0000 N   0  0  0  0  0  0  0  0  0  0  0  0
   -1.1782    3.6333    0.0000 C   0  0  0  0  0  0  0  0  0  0  0  0
    0.2234    3.0989    0.0000 C   0  0  0  0  0  0  0  0  0  0  0  0
    0.4615    1.6179    0.0000 C   0  0  0  0  0  0  0  0  0  0  0  0
    1.8631    1.0836    0.0000 C   0  0  0  0  0  0  0  0  0  0  0  0
    3.0266    2.0302    0.0000 N   0  0  0  0  0  0  0  0  0  0  0  0
    4.4282    1.4959    0.0000 C   0  0  0  0  0  0  0  0  0  0  0  0
    5.5918    2.4426    0.0000 O   0  0  0  0  0  0  0  0  0  0  0  0
    4.6663    0.0149    0.0000 C   0  0  0  0  0  0  0  0  0  0  0  0
    3.5027   -0.9317    0.0000 C   0  0  0  0  0  0  0  0  0  0  0  0
    3.7408   -2.4127    0.0000 C   0  0  0  0  0  0  0  0  0  0  0  0
    5.1424   -2.9471    0.0000 C   0  0  0  0  0  0  0  0  0  0  0  0
    5.3804   -4.4280    0.0000 Br  0  0  0  0  0  0  0  0  0  0  0  0
    6.3059   -2.0004    0.0000 C   0  0  0  0  0  0  0  0  0  0  0  0
    7.7075   -2.5347    0.0000 C   0  0  0  0  0  0  0  0  0  0  0  0
    6.0679   -0.5194    0.0000 C   0  0  0  0  0  0  0  0  0  0  0  0
    2.7886    3.5112    0.0000 C   0  0  0  0  0  0  0  0  0  0  0  0
    1.3870    4.0456    0.0000 C   0  0  0  0  0  0  0  0  0  0  0  0
   -3.7433    3.2209    0.0000 C   0  0  0  0  0  0  0  0  0  0  0  0
   -4.9069    2.2743    0.0000 C   0  0  0  0  0  0  0  0  0  0  0  0
  1  2  1  0
  2  3  1  0
  3  4  2  0
  4  5  1  0
  5  6  2  0
  6  7  1  0
  7  8  2  0
  8  9  1  0
  9 10  1  0
  6 11  1  0
 11 12  1  0
 12 13  1  0
 13 14  1  0
 14 15  1  0
 15 16  1  0
 16 17  1  0
 17 18  1  0
 18 19  2  0
 18 20  1  0
 20 21  2  0
 21 22  1  0
 22 23  2  0
 23 24  1  0
 23 25  1  0
 25 26  1  0
 25 27  2  0
 17 28  1  0
 28 29  1  0
 12 30  1  0
 30 31  1  0
  8  3  1  0
 29 14  1  0
 31  5  1  0
 27 20  1  0
M  END
>  <Ki>  (398) 
44.0

>  <database>  (398) 
SRSLDB

$$$$

     RDKit          2D

 23 26  0  0  0  0  0  0  0  0999 V2000
    1.5587   -4.0251    0.0000 O   0  0  0  0  0  0  0  0  0  0  0  0
    0.7693   -2.7496    0.0000 C   0  0  0  0  0  0  0  0  0  0  0  0
   -0.7300   -2.7956    0.0000 C   0  0  0  0  0  0  0  0  0  0  0  0
   -1.5194   -1.5201    0.0000 C   0  0  0  0  0  0  0  0  0  0  0  0
   -0.6995   -1.4445    0.0000 C   0  0  0  0  0  0  0  0  0  0  0  0
    0.6562   -1.4030    0.0000 N   0  0  0  0  0  0  0  0  0  0  0  0
    1.3997    1.1686    0.0000 C   0  0  0  0  0  0  0  0  0  0  0  0
    2.8990    1.2145    0.0000 C   0  0  0  0  0  0  0  0  0  0  0  0
    3.6884   -0.0610    0.0000 C   0  0  0  0  0  0  0  0  0  0  0  0
    5.1877   -0.0150    0.0000 C   0  0  0  0  0  0  0  0  0  0  0  0
    5.8976    1.3063    0.0000 C   0  0  0  0  0  0  0  0  0  0  0  0
    5.1081    2.5818    0.0000 C   0  0  0  0  0  0  0  0  0  0  0  0
    3.6089    2.5359    0.0000 C   0  0  0  0  0  0  0  0  0  0  0  0
    1.4792   -1.4283    0.0000 C   0  0  0  0  0  0  0  0  0  0  0  0
    0.6898   -0.1528    0.0000 C   0  0  0  0  0  0  0  0  0  0  0  0
   -0.8095   -0.1987    0.0000 N   0  0  0  0  0  0  0  0  0  0  0  0
   -1.5989    1.0768    0.0000 C   0  0  0  0  0  0  0  0  0  0  0  0
   -3.0982    1.0309    0.0000 C   0  0  0  0  0  0  0  0  0  0  0  0
   -3.8876    2.3063    0.0000 C   0  0  0  0  0  0  0  0  0  0  0  0
   -5.3869    2.2604    0.0000 C   0  0  0  0  0  0  0  0  0  0  0  0
   -6.0968    0.9390    0.0000 C   0  0  0  0  0  0  0  0  0  0  0  0
   -5.3074   -0.3364    0.0000 C   0  0  0  0  0  0  0  0  0  0  0  0
   -3.8081   -0.2905    0.0000 C   0  0  0  0  0  0  0  0  0  0  0  0
  2  1  1  6
  2  3  1  0
  4  3  1  6
  4  5  1  0
  5  6  1  0
  6  7  1  0
  7  8  1  0
  8  9  1  0
  9 10  1  0
 10 11  1  0
 11 12  1  0
 12 13  1  0
  6 14  1  0
 14 15  1  6
 15 16  1  0
 16 17  1  0
 17 18  1  0
 18 19  2  0
 19 20  1  0
 20 21  2  0
 21 22  1  0
 22 23  2  0
 14  2  1  0
 23 18  1  0
 16  4  1  0
 13  8  1  0
M  END
>  <Compound_Key>  (399) 
38

>  <Ki>  (399) 
36.0

>  <database>  (399) 
NewLiterature

>  <Document_ChEMBL_ID>  (399) 
10.1021/acs.jmedchem.0c02265

$$$$

     RDKit          2D

 25 28  0  0  0  0  0  0  0  0999 V2000
    8.5847   -1.6948    0.0000 C   0  0  0  0  0  0  0  0  0  0  0  0
    7.3663   -2.5697    0.0000 C   0  0  0  0  0  0  0  0  0  0  0  0
    5.9994   -1.9520    0.0000 C   0  0  0  0  0  0  0  0  0  0  0  0
    5.8509   -0.4594    0.0000 C   0  0  0  0  0  0  0  0  0  0  0  0
    7.0693    0.4155    0.0000 C   0  0  0  0  0  0  0  0  0  0  0  0
    8.4362   -0.2022    0.0000 C   0  0  0  0  0  0  0  0  0  0  0  0
    6.6137    1.8447    0.0000 C   0  0  0  0  0  0  0  0  0  0  0  0
    5.1137    1.8530    0.0000 C   0  0  0  0  0  0  0  0  0  0  0  0
    4.6423    0.4290    0.0000 N   0  0  0  0  0  0  0  0  0  0  0  0
    3.2132   -0.0266    0.0000 C   0  0  0  0  0  0  0  0  0  0  0  0
    2.1040    0.9832    0.0000 C   0  0  0  0  0  0  0  0  0  0  0  0
    0.6749    0.5276    0.0000 C   0  0  0  0  0  0  0  0  0  0  0  0
   -0.4342    1.5375    0.0000 C   0  0  0  0  0  0  0  0  0  0  0  0
   -1.8634    1.0819    0.0000 N   0  0  0  0  0  0  0  0  0  0  0  0
   -2.9725    2.0917    0.0000 C   0  0  0  0  0  0  0  0  0  0  0  0
   -4.4016    1.6361    0.0000 C   0  0  0  0  0  0  0  0  0  0  0  0
   -4.7216    0.1707    0.0000 N   0  0  0  0  0  0  0  0  0  0  0  0
   -6.1508   -0.2849    0.0000 C   0  0  0  0  0  0  0  0  0  0  0  0
   -7.2599    0.7249    0.0000 C   0  0  0  0  0  0  0  0  0  0  0  0
   -8.6890    0.2693    0.0000 C   0  0  0  0  0  0  0  0  0  0  0  0
   -9.0090   -1.1962    0.0000 C   0  0  0  0  0  0  0  0  0  0  0  0
   -7.8999   -2.2060    0.0000 C   0  0  0  0  0  0  0  0  0  0  0  0
   -6.4708   -1.7504    0.0000 C   0  0  0  0  0  0  0  0  0  0  0  0
   -3.6125   -0.8392    0.0000 C   0  0  0  0  0  0  0  0  0  0  0  0
   -2.1834   -0.3836    0.0000 C   0  0  0  0  0  0  0  0  0  0  0  0
  1  2  2  0
  2  3  1  0
  3  4  2  0
  4  5  1  0
  5  6  2  0
  5  7  1  0
  7  8  2  0
  8  9  1  0
  9 10  1  0
 10 11  1  0
 11 12  1  0
 12 13  1  0
 13 14  1  0
 14 15  1  0
 15 16  1  0
 16 17  1  0
 17 18  1  0
 18 19  1  0
 19 20  1  0
 20 21  1  0
 21 22  1  0
 22 23  1  0
 17 24  1  0
 24 25  1  0
  6  1  1  0
 25 14  1  0
  9  4  1  0
 23 18  1  0
M  END
>  <ChemBL_ID>  (400) 
CHEMBL1830149

>  <Ki>  (400) 
1.9

>  <database>  (400) 
SRSLDB

$$$$

     RDKit          2D

 26 31  0  0  0  0  0  0  0  0999 V2000
   -3.6311    3.8009    0.0000 C   0  0  0  0  0  0  0  0  0  0  0  0
   -4.3013    2.4590    0.0000 O   0  0  0  0  0  0  0  0  0  0  0  0
   -3.4742    1.2076    0.0000 C   0  0  0  0  0  0  0  0  0  0  0  0
   -1.9769    1.2982    0.0000 C   0  0  0  0  0  0  0  0  0  0  0  0
   -1.1499    0.0468    0.0000 C   0  0  0  0  0  0  0  0  0  0  0  0
    0.3474    0.1374    0.0000 C   0  0  0  0  0  0  0  0  0  0  0  0
    1.1745   -1.1140    0.0000 N   0  0  0  0  0  0  0  0  0  0  0  0
    0.5043   -2.4559    0.0000 C   0  0  0  0  0  0  0  0  0  0  0  0
    2.6718   -1.0234    0.0000 C   0  0  0  0  0  0  0  0  0  0  0  0
    3.6251   -2.1815    0.0000 C   0  0  0  0  0  0  0  0  0  0  0  0
    3.4057   -0.6976    0.0000 C   0  0  0  0  0  0  0  0  0  0  0  0
    2.3560    0.3739    0.0000 C   0  0  0  0  0  0  0  0  0  0  0  0
    3.0507    1.7034    0.0000 C   0  0  0  0  0  0  0  0  0  0  0  0
    4.5298    1.4535    0.0000 C   0  0  0  0  0  0  0  0  0  0  0  0
    4.7492   -0.0304    0.0000 C   0  0  0  0  0  0  0  0  0  0  0  0
    5.7988   -1.1019    0.0000 C   0  0  0  0  0  0  0  0  0  0  0  0
    5.1041   -2.4313    0.0000 C   0  0  0  0  0  0  0  0  0  0  0  0
    4.7796    2.9325    0.0000 C   0  0  0  0  0  0  0  0  0  0  0  0
    3.3006    3.1824    0.0000 C   0  0  0  0  0  0  0  0  0  0  0  0
   -1.8200   -1.2951    0.0000 C   0  0  0  0  0  0  0  0  0  0  0  0
   -3.3173   -1.3857    0.0000 C   0  0  0  0  0  0  0  0  0  0  0  0
   -3.9875   -2.7277    0.0000 O   0  0  0  0  0  0  0  0  0  0  0  0
   -5.4847   -2.8183    0.0000 C   0  0  0  0  0  0  0  0  0  0  0  0
   -4.1444   -0.1343    0.0000 C   0  0  0  0  0  0  0  0  0  0  0  0
   -5.6416   -0.2249    0.0000 O   0  0  0  0  0  0  0  0  0  0  0  0
   -6.4687    1.0265    0.0000 C   0  0  0  0  0  0  0  0  0  0  0  0
  1  2  1  0
  2  3  1  0
  3  4  2  0
  4  5  1  0
  5  6  1  0
  6  7  1  0
  7  8  1  0
  7  9  1  0
  9 10  1  0
 10 11  1  0
 11 12  1  0
 12 13  1  0
 13 14  1  0
 14 15  1  0
 15 16  1  0
 16 17  1  0
 17 18  1  0
 18 19  1  0
  5 20  2  0
 20 21  1  0
 21 22  1  0
 22 23  1  0
 21 24  2  0
 24 25  1  0
 25 26  1  0
 24  3  1  0
 19  9  1  0
 17 10  1  0
 15 11  1  0
 19 13  1  0
 18 14  1  0
M  END
>  <ChemBL_ID>  (401) 
CHEMBL2432061

>  <Ki>  (401) 
714.0

>  <database>  (401) 
SRSLDB

$$$$

     RDKit          2D

 23 30  0  0  0  0  0  0  0  0999 V2000
    1.7810    3.1880    0.0000 O   0  0  0  0  0  0  0  0  0  0  0  0
    1.6283    1.6958    0.0000 C   0  0  0  0  0  0  0  0  0  0  0  0
    3.0947    2.0117    0.0000 C   0  0  0  0  0  0  0  0  0  0  0  0
    5.6100   -0.0639    0.0000 C   0  0  0  0  0  0  0  0  0  0  0  0
    5.9259   -1.5302    0.0000 C   0  0  0  0  0  0  0  0  0  0  0  0
    4.6289   -2.2838    0.0000 C   0  0  0  0  0  0  0  0  0  0  0  0
    3.5114   -1.2832    0.0000 C   0  0  0  0  0  0  0  0  0  0  0  0
    4.1178    0.0888    0.0000 C   0  0  0  0  0  0  0  0  0  0  0  0
    2.7458    0.6952    0.0000 C   0  0  0  0  0  0  0  0  0  0  0  0
    2.1394   -0.6768    0.0000 C   0  0  0  0  0  0  0  0  0  0  0  0
    0.6472   -0.5241    0.0000 C   0  0  0  0  0  0  0  0  0  0  0  0
    5.0510   -0.8444    0.0000 C   0  0  0  0  0  0  0  0  0  0  0  0
    0.3313    0.9423    0.0000 N   0  0  0  0  0  0  0  0  0  0  0  0
   -1.0406    1.5486    0.0000 C   0  0  0  0  0  0  0  0  0  0  0  0
   -2.2518    0.6636    0.0000 C   0  0  0  0  0  0  0  0  0  0  0  0
   -2.0909   -0.8277    0.0000 C   0  0  0  0  0  0  0  0  0  0  0  0
   -3.3020   -1.7127    0.0000 C   0  0  0  0  0  0  0  0  0  0  0  0
   -4.6740   -1.1064    0.0000 C   0  0  0  0  0  0  0  0  0  0  0  0
   -4.8348    0.3850    0.0000 C   0  0  0  0  0  0  0  0  0  0  0  0
   -3.6237    1.2700    0.0000 C   0  0  0  0  0  0  0  0  0  0  0  0
   -6.3029    0.6928    0.0000 O   0  0  0  0  0  0  0  0  0  0  0  0
   -7.0494   -0.6083    0.0000 C   0  0  0  0  0  0  0  0  0  0  0  0
   -6.0426   -1.7202    0.0000 O   0  0  0  0  0  0  0  0  0  0  0  0
  1  2  1  0
  2  3  1  0
  3  4  1  0
  4  5  1  0
  5  6  1  0
  6  7  1  0
  7  8  1  0
  8  9  1  0
  9 10  1  0
 10 11  1  0
 11 12  1  0
 11 13  1  0
 13 14  1  0
 14 15  1  0
 15 16  1  0
 16 17  2  0
 17 18  1  0
 18 19  2  0
 19 20  1  0
 19 21  1  0
 21 22  1  0
 22 23  1  0
  9  2  1  0
 20 15  2  0
 13  2  1  0
 23 18  1  0
 12  3  1  0
  8  4  1  0
 12  6  1  0
 10  7  1  0
M  END
>  <ChemBL_ID>  (402) 
CHEMBL2205829

>  <Ki>  (402) 
259.0

>  <database>  (402) 
SRSLDB

$$$$

     RDKit          2D

 21 22  0  0  0  0  0  0  0  0999 V2000
   -2.9903   -2.6596    0.0000 O   0  0  0  0  0  0  0  0  0  0  0  0
   -2.9443   -1.1603    0.0000 C   0  0  0  0  0  0  0  0  0  0  0  0
   -1.6229   -0.4505    0.0000 C   0  0  0  0  0  0  0  0  0  0  0  0
   -0.3475   -1.2399    0.0000 C   0  0  0  0  0  0  0  0  0  0  0  0
    0.9740   -0.5301    0.0000 C   0  0  0  0  0  0  0  0  0  0  0  0
    2.2494   -1.3195    0.0000 C   0  0  0  0  0  0  0  0  0  0  0  0
    3.5708   -0.6097    0.0000 N   0  0  0  0  0  0  0  0  0  0  0  0
    4.8463   -1.3992    0.0000 C   0  0  0  0  0  0  0  0  0  0  0  0
    6.1677   -0.6893    0.0000 C   0  0  0  0  0  0  0  0  0  0  0  0
    6.2136    0.8100    0.0000 C   0  0  0  0  0  0  0  0  0  0  0  0
    7.5350    1.5198    0.0000 C   0  0  0  0  0  0  0  0  0  0  0  0
    8.8105    0.7304    0.0000 O   0  0  0  0  0  0  0  0  0  0  0  0
    4.9382    1.5994    0.0000 C   0  0  0  0  0  0  0  0  0  0  0  0
    3.6168    0.8896    0.0000 C   0  0  0  0  0  0  0  0  0  0  0  0
   -4.2198   -0.3709    0.0000 C   0  0  0  0  0  0  0  0  0  0  0  0
   -4.1738    1.1284    0.0000 C   0  0  0  0  0  0  0  0  0  0  0  0
   -5.4492    1.9179    0.0000 C   0  0  0  0  0  0  0  0  0  0  0  0
   -6.7706    1.2080    0.0000 C   0  0  0  0  0  0  0  0  0  0  0  0
   -8.0461    1.9975    0.0000 F   0  0  0  0  0  0  0  0  0  0  0  0
   -6.8166   -0.2913    0.0000 C   0  0  0  0  0  0  0  0  0  0  0  0
   -5.5412   -1.0807    0.0000 C   0  0  0  0  0  0  0  0  0  0  0  0
  1  2  2  0
  2  3  1  0
  3  4  1  0
  4  5  1  0
  5  6  1  0
  6  7  1  0
  7  8  1  0
  8  9  1  0
  9 10  1  0
 10 11  1  0
 11 12  1  0
 10 13  1  0
 13 14  1  0
  2 15  1  0
 15 16  2  0
 16 17  1  0
 17 18  2  0
 18 19  1  0
 18 20  1  0
 20 21  2  0
 14  7  1  0
 21 15  1  0
M  END
>  <Ki>  (403) 
90.5999999999999

>  <database>  (403) 
SRSLDB

$$$$

     RDKit          2D

 29 33  0  0  0  0  0  0  0  0999 V2000
    3.6936   -3.9797    0.0000 O   0  0  0  0  0  0  0  0  0  0  0  0
    2.8268   -2.7555    0.0000 C   0  0  0  0  0  0  0  0  0  0  0  0
    1.3332   -2.8940    0.0000 C   0  0  0  0  0  0  0  0  0  0  0  0
    0.4665   -1.6697    0.0000 C   0  0  0  0  0  0  0  0  0  0  0  0
    1.2802   -1.5436    0.0000 C   0  0  0  0  0  0  0  0  0  0  0  0
    2.6307   -1.4184    0.0000 N   0  0  0  0  0  0  0  0  0  0  0  0
    3.2138    1.1942    0.0000 C   0  0  0  0  0  0  0  0  0  0  0  0
    4.7074    1.3327    0.0000 C   0  0  0  0  0  0  0  0  0  0  0  0
    5.5741    0.1085    0.0000 C   0  0  0  0  0  0  0  0  0  0  0  0
    7.0677    0.2470    0.0000 C   0  0  0  0  0  0  0  0  0  0  0  0
    7.6946    1.6097    0.0000 C   0  0  0  0  0  0  0  0  0  0  0  0
    6.8278    2.8340    0.0000 C   0  0  0  0  0  0  0  0  0  0  0  0
    5.3343    2.6955    0.0000 C   0  0  0  0  0  0  0  0  0  0  0  0
    3.4537   -1.3927    0.0000 C   0  0  0  0  0  0  0  0  0  0  0  0
    2.5870   -0.1685    0.0000 C   0  0  0  0  0  0  0  0  0  0  0  0
    1.0934   -0.3070    0.0000 N   0  0  0  0  0  0  0  0  0  0  0  0
    0.2266    0.9173    0.0000 C   0  0  0  0  0  0  0  0  0  0  0  0
   -1.2670    0.7788    0.0000 C   0  0  0  0  0  0  0  0  0  0  0  0
   -2.1337    2.0030    0.0000 C   0  0  0  0  0  0  0  0  0  0  0  0
   -3.6273    1.8645    0.0000 C   0  0  0  0  0  0  0  0  0  0  0  0
   -4.2542    0.5018    0.0000 C   0  0  0  0  0  0  0  0  0  0  0  0
   -5.7477    0.3633    0.0000 C   0  0  0  0  0  0  0  0  0  0  0  0
   -6.6145    1.5875    0.0000 C   0  0  0  0  0  0  0  0  0  0  0  0
   -8.1081    1.4490    0.0000 C   0  0  0  0  0  0  0  0  0  0  0  0
   -8.7349    0.0863    0.0000 C   0  0  0  0  0  0  0  0  0  0  0  0
   -7.8682   -1.1380    0.0000 C   0  0  0  0  0  0  0  0  0  0  0  0
   -6.3746   -0.9995    0.0000 C   0  0  0  0  0  0  0  0  0  0  0  0
   -3.3874   -0.7225    0.0000 C   0  0  0  0  0  0  0  0  0  0  0  0
   -1.8938   -0.5840    0.0000 C   0  0  0  0  0  0  0  0  0  0  0  0
  2  1  1  6
  2  3  1  0
  4  3  1  6
  4  5  1  0
  5  6  1  0
  6  7  1  0
  7  8  1  0
  8  9  1  0
  9 10  1  0
 10 11  1  0
 11 12  1  0
 12 13  1  0
  6 14  1  0
 14 15  1  6
 15 16  1  0
 16 17  1  0
 17 18  1  0
 18 19  2  0
 19 20  1  0
 20 21  2  0
 21 22  1  0
 22 23  2  0
 23 24  1  0
 24 25  2  0
 25 26  1  0
 26 27  2  0
 21 28  1  0
 28 29  2  0
 14  2  1  0
 29 18  1  0
 16  4  1  0
 27 22  1  0
 13  8  1  0
M  END
>  <Compound_Key>  (404) 
42

>  <Ki>  (404) 
20.0

>  <database>  (404) 
NewLiterature

>  <Document_ChEMBL_ID>  (404) 
10.1021/acs.jmedchem.0c02265

$$$$

     RDKit          2D

 26 29  0  0  0  0  0  0  0  0999 V2000
   -5.7519   -3.3486    0.0000 C   0  0  0  0  0  0  0  0  0  0  0  0
   -4.9345   -2.0909    0.0000 O   0  0  0  0  0  0  0  0  0  0  0  0
   -5.6149   -0.7541    0.0000 C   0  0  0  0  0  0  0  0  0  0  0  0
   -7.1128   -0.6750    0.0000 C   0  0  0  0  0  0  0  0  0  0  0  0
   -7.7932    0.6618    0.0000 C   0  0  0  0  0  0  0  0  0  0  0  0
   -6.9758    1.9195    0.0000 C   0  0  0  0  0  0  0  0  0  0  0  0
   -5.4779    1.8404    0.0000 C   0  0  0  0  0  0  0  0  0  0  0  0
   -4.7974    0.5036    0.0000 C   0  0  0  0  0  0  0  0  0  0  0  0
   -3.2995    0.4245    0.0000 C   0  0  0  0  0  0  0  0  0  0  0  0
   -2.6191   -0.9123    0.0000 C   0  0  0  0  0  0  0  0  0  0  0  0
   -1.1212   -0.9915    0.0000 C   0  0  0  0  0  0  0  0  0  0  0  0
   -0.3037    0.2662    0.0000 C   0  0  0  0  0  0  0  0  0  0  0  0
    1.1942    0.1871    0.0000 N   0  0  0  0  0  0  0  0  0  0  0  0
    1.8747   -1.1497    0.0000 C   0  0  0  0  0  0  0  0  0  0  0  0
    3.3726   -1.2288    0.0000 C   0  0  0  0  0  0  0  0  0  0  0  0
    4.1900    0.0288    0.0000 N   0  0  0  0  0  0  0  0  0  0  0  0
    5.6880   -0.0503    0.0000 C   0  0  0  0  0  0  0  0  0  0  0  0
    6.3684   -1.3871    0.0000 C   0  0  0  0  0  0  0  0  0  0  0  0
    7.8663   -1.4662    0.0000 C   0  0  0  0  0  0  0  0  0  0  0  0
    8.6838   -0.2085    0.0000 C   0  0  0  0  0  0  0  0  0  0  0  0
    8.0033    1.1283    0.0000 C   0  0  0  0  0  0  0  0  0  0  0  0
    6.5054    1.2074    0.0000 N   0  0  0  0  0  0  0  0  0  0  0  0
    3.5096    1.3656    0.0000 C   0  0  0  0  0  0  0  0  0  0  0  0
    2.0117    1.4448    0.0000 C   0  0  0  0  0  0  0  0  0  0  0  0
   -0.9841    1.6030    0.0000 C   0  0  0  0  0  0  0  0  0  0  0  0
   -2.4820    1.6821    0.0000 C   0  0  0  0  0  0  0  0  0  0  0  0
  1  2  1  0
  2  3  1  0
  3  4  2  0
  4  5  1  0
  5  6  2  0
  6  7  1  0
  7  8  2  0
  9  8  1  6
  9 10  1  0
 10 11  1  0
 11 12  1  0
 12 13  1  6
 13 14  1  0
 14 15  1  0
 15 16  1  0
 16 17  1  0
 17 18  2  0
 18 19  1  0
 19 20  2  0
 20 21  1  0
 21 22  2  0
 16 23  1  0
 23 24  1  0
 12 25  1  0
 25 26  1  0
  8  3  1  0
 26  9  1  0
 24 13  1  0
 22 17  1  0
M  END
>  <ChemBL_ID>  (405) 
CHEMBL485729

>  <Ki>  (405) 
242.0

>  <database>  (405) 
SRSLDB

$$$$

     RDKit          2D

 25 30  0  0  0  0  0  0  0  0999 V2000
    2.3925   -3.5802    0.0000 C   0  0  0  0  0  0  0  0  0  0  0  0
    3.5069   -2.5760    0.0000 O   0  0  0  0  0  0  0  0  0  0  0  0
    3.1944   -1.1089    0.0000 C   0  0  0  0  0  0  0  0  0  0  0  0
    1.7676   -0.6460    0.0000 C   0  0  0  0  0  0  0  0  0  0  0  0
    1.4552    0.8211    0.0000 C   0  0  0  0  0  0  0  0  0  0  0  0
    0.0284    1.2841    0.0000 C   0  0  0  0  0  0  0  0  0  0  0  0
   -1.0859    0.2800    0.0000 N   0  0  0  0  0  0  0  0  0  0  0  0
   -2.5126    0.7429    0.0000 C   0  0  0  0  0  0  0  0  0  0  0  0
   -2.9767    2.1693    0.0000 C   0  0  0  0  0  0  0  0  0  0  0  0
   -3.3149    0.7080    0.0000 C   0  0  0  0  0  0  0  0  0  0  0  0
   -2.7295   -0.6731    0.0000 C   0  0  0  0  0  0  0  0  0  0  0  0
   -3.8621   -1.6566    0.0000 C   0  0  0  0  0  0  0  0  0  0  0  0
   -5.1474   -0.8834    0.0000 C   0  0  0  0  0  0  0  0  0  0  0  0
   -4.8093    0.5780    0.0000 C   0  0  0  0  0  0  0  0  0  0  0  0
   -5.3947    1.9590    0.0000 C   0  0  0  0  0  0  0  0  0  0  0  0
   -4.2621    2.9425    0.0000 C   0  0  0  0  0  0  0  0  0  0  0  0
   -5.9206   -2.1688    0.0000 C   0  0  0  0  0  0  0  0  0  0  0  0
   -4.6353   -2.9420    0.0000 C   0  0  0  0  0  0  0  0  0  0  0  0
    2.5695    1.8253    0.0000 C   0  0  0  0  0  0  0  0  0  0  0  0
    3.9963    1.3623    0.0000 C   0  0  0  0  0  0  0  0  0  0  0  0
    5.1106    2.3664    0.0000 O   0  0  0  0  0  0  0  0  0  0  0  0
    6.5374    1.9035    0.0000 C   0  0  0  0  0  0  0  0  0  0  0  0
    4.3087   -0.1048    0.0000 C   0  0  0  0  0  0  0  0  0  0  0  0
    5.7355   -0.5678    0.0000 O   0  0  0  0  0  0  0  0  0  0  0  0
    6.0479   -2.0349    0.0000 C   0  0  0  0  0  0  0  0  0  0  0  0
  1  2  1  0
  2  3  1  0
  3  4  2  0
  4  5  1  0
  5  6  1  0
  6  7  1  0
  7  8  1  0
  8  9  1  0
  9 10  1  0
 10 11  1  0
 11 12  1  0
 12 13  1  0
 13 14  1  0
 14 15  1  0
 15 16  1  0
 16 17  1  0
 17 18  1  0
  5 19  2  0
 19 20  1  0
 20 21  1  0
 21 22  1  0
 20 23  2  0
 23 24  1  0
 24 25  1  0
 23  3  1  0
 18  8  1  0
 16  9  1  0
 14 10  1  0
 18 12  1  0
 17 13  1  0
M  END
>  <ChemBL_ID>  (406) 
CHEMBL2432051

>  <Ki>  (406) 
627.0

>  <database>  (406) 
SRSLDB

$$$$

     RDKit          2D

 28 31  0  0  0  0  0  0  0  0999 V2000
   -8.0188   -0.1497    0.0000 C   0  0  0  0  0  0  0  0  0  0  0  0
   -6.7853   -1.0032    0.0000 S   0  0  0  0  0  0  0  0  0  0  0  0
   -5.4294   -0.3617    0.0000 C   0  0  0  0  0  0  0  0  0  0  0  0
   -5.3070    1.1333    0.0000 C   0  0  0  0  0  0  0  0  0  0  0  0
   -3.9510    1.7748    0.0000 C   0  0  0  0  0  0  0  0  0  0  0  0
   -2.7175    0.9213    0.0000 C   0  0  0  0  0  0  0  0  0  0  0  0
   -2.8399   -0.5737    0.0000 C   0  0  0  0  0  0  0  0  0  0  0  0
   -1.6064   -1.4272    0.0000 N   0  0  0  0  0  0  0  0  0  0  0  0
   -0.2505   -0.7857    0.0000 C   0  0  0  0  0  0  0  0  0  0  0  0
   -0.1281    0.7092    0.0000 O   0  0  0  0  0  0  0  0  0  0  0  0
    0.9830   -1.6392    0.0000 O   0  0  0  0  0  0  0  0  0  0  0  0
    2.3389   -0.9978    0.0000 C   0  0  0  0  0  0  0  0  0  0  0  0
    3.5724   -1.8513    0.0000 C   0  0  0  0  0  0  0  0  0  0  0  0
    4.9283   -1.2098    0.0000 C   0  0  0  0  0  0  0  0  0  0  0  0
    6.2842   -0.5683    0.0000 C   0  0  0  0  0  0  0  0  0  0  0  0
    6.4066    0.9267    0.0000 C   0  0  0  0  0  0  0  0  0  0  0  0
    5.1731    1.7802    0.0000 C   0  0  0  0  0  0  0  0  0  0  0  0
    3.8172    1.1387    0.0000 C   0  0  0  0  0  0  0  0  0  0  0  0
    2.4613    0.4972    0.0000 C   0  0  0  0  0  0  0  0  0  0  0  0
    3.6948   -0.3563    0.0000 N   0  0  0  0  0  0  0  0  0  0  0  0
    2.3389   -0.9978    0.0000 C   0  0  0  0  0  0  0  0  0  0  0  0
    1.1054   -0.1443    0.0000 C   0  0  0  0  0  0  0  0  0  0  0  0
    1.2278    1.3507    0.0000 C   0  0  0  0  0  0  0  0  0  0  0  0
   -0.0057    2.2042    0.0000 C   0  0  0  0  0  0  0  0  0  0  0  0
   -1.3616    1.5627    0.0000 C   0  0  0  0  0  0  0  0  0  0  0  0
   -1.4840    0.0678    0.0000 C   0  0  0  0  0  0  0  0  0  0  0  0
   -0.2505   -0.7857    0.0000 C   0  0  0  0  0  0  0  0  0  0  0  0
   -4.1958   -1.2152    0.0000 C   0  0  0  0  0  0  0  0  0  0  0  0
  1  2  1  0
  2  3  1  0
  3  4  2  0
  4  5  1  0
  5  6  2  0
  6  7  1  0
  7  8  1  0
  8  9  1  0
  9 10  2  0
  9 11  1  0
 11 12  1  0
 12 13  1  0
 13 14  1  0
 14 15  1  0
 15 16  1  0
 16 17  1  0
 17 18  1  0
 18 19  1  0
 18 20  1  0
 20 21  1  0
 21 22  1  0
 22 23  2  0
 23 24  1  0
 24 25  2  0
 25 26  1  0
 26 27  2  0
  7 28  2  0
 28  3  1  0
 19 12  1  0
 27 22  1  0
 20 14  1  0
M  END
>  <Ki>  (407) 
8.4

>  <database>  (407) 
SRSLDB

$$$$

     RDKit          2D

 26 29  0  0  0  0  0  0  0  0999 V2000
   -4.8462   -2.5981    0.0000 C   0  0  0  0  0  0  0  0  0  0  0  0
   -5.5962   -1.2990    0.0000 C   0  0  0  0  0  0  0  0  0  0  0  0
   -7.0962   -1.2990    0.0000 C   0  0  0  0  0  0  0  0  0  0  0  0
   -7.8462    0.0000    0.0000 C   0  0  0  0  0  0  0  0  0  0  0  0
   -7.0962    1.2990    0.0000 C   0  0  0  0  0  0  0  0  0  0  0  0
   -5.5962    1.2990    0.0000 C   0  0  0  0  0  0  0  0  0  0  0  0
   -4.8462    2.5981    0.0000 C   0  0  0  0  0  0  0  0  0  0  0  0
   -4.8462    0.0000    0.0000 C   0  0  0  0  0  0  0  0  0  0  0  0
   -3.3462    0.0000    0.0000 C   0  0  0  0  0  0  0  0  0  0  0  0
   -2.5962   -1.2990    0.0000 C   0  0  0  0  0  0  0  0  0  0  0  0
   -1.0962   -1.2990    0.0000 C   0  0  0  0  0  0  0  0  0  0  0  0
   -0.3462   -0.0000    0.0000 C   0  0  0  0  0  0  0  0  0  0  0  0
    1.1538   -0.0000    0.0000 N   0  0  0  0  0  0  0  0  0  0  0  0
    1.9038   -1.2990    0.0000 C   0  0  0  0  0  0  0  0  0  0  0  0
    3.4038   -1.2990    0.0000 C   0  0  0  0  0  0  0  0  0  0  0  0
    4.1538    0.0000    0.0000 N   0  0  0  0  0  0  0  0  0  0  0  0
    5.6538    0.0000    0.0000 C   0  0  0  0  0  0  0  0  0  0  0  0
    6.4038   -1.2990    0.0000 C   0  0  0  0  0  0  0  0  0  0  0  0
    7.9038   -1.2990    0.0000 C   0  0  0  0  0  0  0  0  0  0  0  0
    8.6538    0.0000    0.0000 C   0  0  0  0  0  0  0  0  0  0  0  0
    7.9038    1.2990    0.0000 C   0  0  0  0  0  0  0  0  0  0  0  0
    6.4038    1.2990    0.0000 N   0  0  0  0  0  0  0  0  0  0  0  0
    3.4038    1.2990    0.0000 C   0  0  0  0  0  0  0  0  0  0  0  0
    1.9038    1.2990    0.0000 C   0  0  0  0  0  0  0  0  0  0  0  0
   -1.0962    1.2990    0.0000 C   0  0  0  0  0  0  0  0  0  0  0  0
   -2.5962    1.2990    0.0000 C   0  0  0  0  0  0  0  0  0  0  0  0
  1  2  1  0
  2  3  2  0
  3  4  1  0
  4  5  2  0
  5  6  1  0
  6  7  1  0
  6  8  2  0
  8  9  1  0
  9 10  1  0
 10 11  1  0
 11 12  2  0
 12 13  1  0
 13 14  1  0
 14 15  1  0
 15 16  1  0
 16 17  1  0
 17 18  2  0
 18 19  1  0
 19 20  2  0
 20 21  1  0
 21 22  2  0
 16 23  1  0
 23 24  1  0
 12 25  1  0
 25 26  1  0
  8  2  1  0
 26  9  1  0
 24 13  1  0
 22 17  1  0
M  END
>  <Ki>  (408) 
113.0

>  <database>  (408) 
SRSLDB

$$$$

     RDKit          2D

 23 25  0  0  0  0  0  0  0  0999 V2000
    7.1171   -2.7101    0.0000 C   0  0  0  0  0  0  0  0  0  0  0  0
    6.8404   -1.2358    0.0000 O   0  0  0  0  0  0  0  0  0  0  0  0
    5.4254   -0.7382    0.0000 C   0  0  0  0  0  0  0  0  0  0  0  0
    4.2869   -1.7149    0.0000 C   0  0  0  0  0  0  0  0  0  0  0  0
    2.8719   -1.2174    0.0000 C   0  0  0  0  0  0  0  0  0  0  0  0
    2.5952    0.2569    0.0000 C   0  0  0  0  0  0  0  0  0  0  0  0
    3.7337    1.2336    0.0000 C   0  0  0  0  0  0  0  0  0  0  0  0
    5.1487    0.7360    0.0000 C   0  0  0  0  0  0  0  0  0  0  0  0
    3.4570    2.7079    0.0000 C   0  0  0  0  0  0  0  0  0  0  0  0
    2.0419    3.2054    0.0000 C   0  0  0  0  0  0  0  0  0  0  0  0
    0.9035    2.2287    0.0000 C   0  0  0  0  0  0  0  0  0  0  0  0
    1.1801    0.7544    0.0000 C   0  0  0  0  0  0  0  0  0  0  0  0
    0.0417   -0.2223    0.0000 C   0  0  0  0  0  0  0  0  0  0  0  0
   -1.3734    0.2753    0.0000 C   0  0  0  0  0  0  0  0  0  0  0  0
   -2.5118   -0.7015    0.0000 C   0  0  0  0  0  0  0  0  0  0  0  0
   -3.9269   -0.2039    0.0000 N   0  0  0  0  0  0  0  0  0  0  0  0
   -4.2035    1.2704    0.0000 C   0  0  0  0  0  0  0  0  0  0  0  0
   -5.6186    1.7679    0.0000 C   0  0  0  0  0  0  0  0  0  0  0  0
   -6.7570    0.7912    0.0000 C   0  0  0  0  0  0  0  0  0  0  0  0
   -6.4804   -0.6831    0.0000 C   0  0  0  0  0  0  0  0  0  0  0  0
   -5.0653   -1.1806    0.0000 C   0  0  0  0  0  0  0  0  0  0  0  0
   -3.9057   -2.1321    0.0000 C   0  0  0  0  0  0  0  0  0  0  0  0
   -5.8010   -2.4878    0.0000 C   0  0  0  0  0  0  0  0  0  0  0  0
  1  2  1  0
  2  3  1  0
  3  4  2  0
  4  5  1  0
  5  6  2  0
  6  7  1  0
  7  8  2  0
  7  9  1  0
  9 10  1  0
 10 11  1  0
 11 12  1  0
 12 13  1  0
 13 14  1  0
 14 15  1  0
 15 16  1  0
 16 17  1  0
 17 18  1  0
 18 19  1  0
 19 20  1  0
 20 21  1  0
 21 22  1  0
 21 23  1  0
  8  3  1  0
 21 16  1  0
 12  6  1  0
M  END
>  <ChemBL_ID>  (409) 
CHEMBL1188789

>  <Ki>  (409) 
115.0

>  <database>  (409) 
SRSLDB

$$$$

     RDKit          2D

 23 26  0  0  0  0  0  0  0  0999 V2000
    1.5587   -4.0251    0.0000 O   0  0  0  0  0  0  0  0  0  0  0  0
    0.7693   -2.7496    0.0000 C   0  0  0  0  0  0  0  0  0  0  0  0
   -0.7300   -2.7956    0.0000 C   0  0  0  0  0  0  0  0  0  0  0  0
   -1.5194   -1.5201    0.0000 C   0  0  0  0  0  0  0  0  0  0  0  0
   -0.6995   -1.4445    0.0000 C   0  0  0  0  0  0  0  0  0  0  0  0
    0.6562   -1.4030    0.0000 N   0  0  0  0  0  0  0  0  0  0  0  0
    1.3997    1.1686    0.0000 C   0  0  0  0  0  0  0  0  0  0  0  0
    2.8990    1.2145    0.0000 C   0  0  0  0  0  0  0  0  0  0  0  0
    3.6884   -0.0610    0.0000 C   0  0  0  0  0  0  0  0  0  0  0  0
    5.1877   -0.0150    0.0000 C   0  0  0  0  0  0  0  0  0  0  0  0
    5.8976    1.3063    0.0000 C   0  0  0  0  0  0  0  0  0  0  0  0
    5.1081    2.5818    0.0000 C   0  0  0  0  0  0  0  0  0  0  0  0
    3.6089    2.5359    0.0000 C   0  0  0  0  0  0  0  0  0  0  0  0
    1.4792   -1.4283    0.0000 C   0  0  0  0  0  0  0  0  0  0  0  0
    0.6898   -0.1528    0.0000 C   0  0  0  0  0  0  0  0  0  0  0  0
   -0.8095   -0.1987    0.0000 N   0  0  0  0  0  0  0  0  0  0  0  0
   -1.5989    1.0768    0.0000 C   0  0  0  0  0  0  0  0  0  0  0  0
   -3.0982    1.0309    0.0000 C   0  0  0  0  0  0  0  0  0  0  0  0
   -3.8876    2.3063    0.0000 C   0  0  0  0  0  0  0  0  0  0  0  0
   -5.3869    2.2604    0.0000 C   0  0  0  0  0  0  0  0  0  0  0  0
   -6.0968    0.9390    0.0000 C   0  0  0  0  0  0  0  0  0  0  0  0
   -5.3074   -0.3364    0.0000 C   0  0  0  0  0  0  0  0  0  0  0  0
   -3.8081   -0.2905    0.0000 C   0  0  0  0  0  0  0  0  0  0  0  0
  2  1  1  6
  2  3  1  0
  4  3  1  1
  4  5  1  0
  5  6  1  0
  6  7  1  0
  7  8  1  0
  8  9  1  0
  9 10  1  0
 10 11  1  0
 11 12  1  0
 12 13  1  0
  6 14  1  0
 14 15  1  1
 15 16  1  0
 16 17  1  0
 17 18  1  0
 18 19  2  0
 19 20  1  0
 20 21  2  0
 21 22  1  0
 22 23  2  0
 14  2  1  0
 23 18  1  0
 16  4  1  0
 13  8  1  0
M  END
>  <Compound_Key>  (410) 
ent-39

>  <Ki>  (410) 
501.0

>  <database>  (410) 
NewLiterature

>  <Document_ChEMBL_ID>  (410) 
10.1021/acs.jmedchem.0c02265

$$$$

     RDKit          2D

 23 26  0  0  0  0  0  0  0  0999 V2000
    1.3709   -2.8867    0.0000 O   0  0  0  0  0  0  0  0  0  0  0  0
    2.2226   -1.6519    0.0000 C   0  0  0  0  0  0  0  0  0  0  0  0
    3.7178   -1.7721    0.0000 C   0  0  0  0  0  0  0  0  0  0  0  0
    4.5695   -0.5373    0.0000 C   0  0  0  0  0  0  0  0  0  0  0  0
    6.0646   -0.6575    0.0000 C   0  0  0  0  0  0  0  0  0  0  0  0
    6.9163    0.5772    0.0000 C   0  0  0  0  0  0  0  0  0  0  0  0
    6.2728    1.9322    0.0000 C   0  0  0  0  0  0  0  0  0  0  0  0
    4.7777    2.0524    0.0000 C   0  0  0  0  0  0  0  0  0  0  0  0
    3.9260    0.8176    0.0000 C   0  0  0  0  0  0  0  0  0  0  0  0
    2.4308    0.9378    0.0000 C   0  0  0  0  0  0  0  0  0  0  0  0
    1.5791   -0.2969    0.0000 C   0  0  0  0  0  0  0  0  0  0  0  0
    0.0839   -0.1767    0.0000 N   0  0  0  0  0  0  0  0  0  0  0  0
   -0.5596    1.1782    0.0000 C   0  0  0  0  0  0  0  0  0  0  0  0
   -2.0547    1.2984    0.0000 C   0  0  0  0  0  0  0  0  0  0  0  0
   -2.9064    0.0637    0.0000 C   0  0  0  0  0  0  0  0  0  0  0  0
   -4.4016    0.1839    0.0000 N   0  0  0  0  0  0  0  0  0  0  0  0
   -5.0451    1.5388    0.0000 C   0  0  0  0  0  0  0  0  0  0  0  0
   -6.5403    1.6590    0.0000 C   0  0  0  0  0  0  0  0  0  0  0  0
   -7.3919    0.4243    0.0000 C   0  0  0  0  0  0  0  0  0  0  0  0
   -6.7485   -0.9307    0.0000 C   0  0  0  0  0  0  0  0  0  0  0  0
   -5.2533   -1.0509    0.0000 C   0  0  0  0  0  0  0  0  0  0  0  0
   -2.2629   -1.2913    0.0000 C   0  0  0  0  0  0  0  0  0  0  0  0
   -0.7677   -1.4115    0.0000 C   0  0  0  0  0  0  0  0  0  0  0  0
  2  1  1  1
  2  3  1  0
  3  4  1  0
  4  5  2  0
  5  6  1  0
  6  7  2  0
  7  8  1  0
  8  9  2  0
  9 10  1  0
 10 11  1  0
 11 12  1  6
 12 13  1  0
 13 14  1  0
 14 15  1  0
 15 16  1  0
 16 17  1  0
 17 18  1  0
 18 19  1  0
 19 20  1  0
 20 21  1  0
 15 22  1  0
 22 23  1  0
 11  2  1  0
 23 12  1  0
  9  4  1  0
 21 16  1  0
M  END
>  <Ki>  (411) 
161.0

>  <database>  (411) 
SRSLDB

$$$$

     RDKit          2D

 30 33  0  0  0  0  0  0  0  0999 V2000
   -8.1841    3.3156    0.0000 C   0  0  0  0  0  0  0  0  0  0  0  0
   -7.9259    1.8380    0.0000 C   0  0  0  0  0  0  0  0  0  0  0  0
   -6.5171    1.3228    0.0000 C   0  0  0  0  0  0  0  0  0  0  0  0
   -6.2589   -0.1548    0.0000 C   0  0  0  0  0  0  0  0  0  0  0  0
   -4.8501   -0.6700    0.0000 C   0  0  0  0  0  0  0  0  0  0  0  0
   -3.6996    0.2925    0.0000 C   0  0  0  0  0  0  0  0  0  0  0  0
   -2.2908   -0.2227    0.0000 C   0  0  0  0  0  0  0  0  0  0  0  0
   -2.0326   -1.7003    0.0000 C   0  0  0  0  0  0  0  0  0  0  0  0
   -0.6238   -2.2155    0.0000 N   0  0  0  0  0  0  0  0  0  0  0  0
    0.5267   -1.2530    0.0000 C   0  0  0  0  0  0  0  0  0  0  0  0
    0.2685    0.2246    0.0000 O   0  0  0  0  0  0  0  0  0  0  0  0
    1.9354   -1.7682    0.0000 O   0  0  0  0  0  0  0  0  0  0  0  0
    3.0860   -0.8058    0.0000 C   0  0  0  0  0  0  0  0  0  0  0  0
    4.4947   -1.3209    0.0000 C   0  0  0  0  0  0  0  0  0  0  0  0
    5.6453   -0.3585    0.0000 C   0  0  0  0  0  0  0  0  0  0  0  0
    6.7958    0.6039    0.0000 C   0  0  0  0  0  0  0  0  0  0  0  0
    6.5376    2.0815    0.0000 C   0  0  0  0  0  0  0  0  0  0  0  0
    5.1288    2.5967    0.0000 C   0  0  0  0  0  0  0  0  0  0  0  0
    3.9783    1.6343    0.0000 C   0  0  0  0  0  0  0  0  0  0  0  0
    2.8277    0.6718    0.0000 C   0  0  0  0  0  0  0  0  0  0  0  0
    4.2365    0.1567    0.0000 N   0  0  0  0  0  0  0  0  0  0  0  0
    3.0860   -0.8058    0.0000 C   0  0  0  0  0  0  0  0  0  0  0  0
    1.6772   -0.2906    0.0000 C   0  0  0  0  0  0  0  0  0  0  0  0
    1.4190    1.1870    0.0000 C   0  0  0  0  0  0  0  0  0  0  0  0
    0.0102    1.7022    0.0000 C   0  0  0  0  0  0  0  0  0  0  0  0
   -1.1403    0.7397    0.0000 C   0  0  0  0  0  0  0  0  0  0  0  0
   -0.8821   -0.7379    0.0000 C   0  0  0  0  0  0  0  0  0  0  0  0
    0.5267   -1.2530    0.0000 C   0  0  0  0  0  0  0  0  0  0  0  0
   -3.1831   -2.6627    0.0000 C   0  0  0  0  0  0  0  0  0  0  0  0
   -4.5919   -2.1476    0.0000 C   0  0  0  0  0  0  0  0  0  0  0  0
  1  2  1  0
  2  3  1  0
  3  4  1  0
  4  5  1  0
  5  6  2  0
  6  7  1  0
  7  8  2  0
  8  9  1  0
  9 10  1  0
 10 11  2  0
 10 12  1  0
 12 13  1  0
 13 14  1  0
 14 15  1  0
 15 16  1  0
 16 17  1  0
 17 18  1  0
 18 19  1  0
 19 20  1  0
 19 21  1  0
 21 22  1  0
 22 23  1  0
 23 24  2  0
 24 25  1  0
 25 26  2  0
 26 27  1  0
 27 28  2  0
  8 29  1  0
 29 30  2  0
 30  5  1  0
 20 13  1  0
 28 23  1  0
 21 15  1  0
M  END
>  <Ki>  (412) 
26.4

>  <database>  (412) 
SRSLDB

$$$$

     RDKit          2D

 25 27  0  0  0  0  0  0  0  0999 V2000
   -4.7970   -2.0764    0.0000 O   0  0  0  0  0  0  0  0  0  0  0  0
   -3.9305   -0.8520    0.0000 S   0  0  0  0  0  0  0  0  0  0  0  0
   -3.0641    0.3725    0.0000 O   0  0  0  0  0  0  0  0  0  0  0  0
   -2.7061   -1.7185    0.0000 C   0  0  0  0  0  0  0  0  0  0  0  0
   -1.3435   -1.0913    0.0000 C   0  0  0  0  0  0  0  0  0  0  0  0
   -0.1191   -1.9578    0.0000 C   0  0  0  0  0  0  0  0  0  0  0  0
    1.2435   -1.3307    0.0000 N   0  0  0  0  0  0  0  0  0  0  0  0
    2.3998   -2.2862    0.0000 C   0  0  0  0  0  0  0  0  0  0  0  0
    3.8678   -1.9780    0.0000 C   0  0  0  0  0  0  0  0  0  0  0  0
    4.5421   -0.6381    0.0000 C   0  0  0  0  0  0  0  0  0  0  0  0
    6.0357   -0.7763    0.0000 C   0  0  0  0  0  0  0  0  0  0  0  0
    6.9022    0.4481    0.0000 C   0  0  0  0  0  0  0  0  0  0  0  0
    8.3958    0.3099    0.0000 O   0  0  0  0  0  0  0  0  0  0  0  0
    6.2750    1.8107    0.0000 C   0  0  0  0  0  0  0  0  0  0  0  0
    4.7814    1.9489    0.0000 C   0  0  0  0  0  0  0  0  0  0  0  0
    3.9149    0.7245    0.0000 C   0  0  0  0  0  0  0  0  0  0  0  0
    2.4586    1.0837    0.0000 C   0  0  0  0  0  0  0  0  0  0  0  0
    2.1504    2.5517    0.0000 O   0  0  0  0  0  0  0  0  0  0  0  0
    1.2697    0.1691    0.0000 C   0  0  0  0  0  0  0  0  0  0  0  0
   -5.1550    0.0145    0.0000 C   0  0  0  0  0  0  0  0  0  0  0  0
   -5.0168    1.5081    0.0000 C   0  0  0  0  0  0  0  0  0  0  0  0
   -6.2412    2.3746    0.0000 C   0  0  0  0  0  0  0  0  0  0  0  0
   -7.6038    1.7475    0.0000 C   0  0  0  0  0  0  0  0  0  0  0  0
   -7.7420    0.2539    0.0000 C   0  0  0  0  0  0  0  0  0  0  0  0
   -6.5176   -0.6126    0.0000 C   0  0  0  0  0  0  0  0  0  0  0  0
  1  2  2  0
  2  3  2  0
  2  4  1  0
  4  5  1  0
  5  6  1  0
  6  7  1  0
  7  8  1  0
  8  9  1  0
  9 10  1  0
 10 11  2  0
 11 12  1  0
 12 13  1  0
 12 14  2  0
 14 15  1  0
 15 16  2  0
 16 17  1  0
 17 18  1  0
 17 19  1  0
  2 20  1  0
 20 21  2  0
 21 22  1  0
 22 23  2  0
 23 24  1  0
 24 25  2  0
 19  7  1  0
 25 20  1  0
 16 10  1  0
M  END
>  <ChemBL_ID>  (413) 
CHEMBL1289628

>  <Ki>  (413) 
653.0

>  <database>  (413) 
SRSLDB

$$$$

     RDKit          2D

 23 26  0  0  0  0  0  0  0  0999 V2000
   -7.1833   -1.5121    0.0000 O   0  0  0  0  0  0  0  0  0  0  0  0
   -5.8781   -0.7729    0.0000 C   0  0  0  0  0  0  0  0  0  0  0  0
   -5.8657    0.7271    0.0000 C   0  0  0  0  0  0  0  0  0  0  0  0
   -4.5605    1.4663    0.0000 C   0  0  0  0  0  0  0  0  0  0  0  0
   -3.2677    0.7055    0.0000 C   0  0  0  0  0  0  0  0  0  0  0  0
   -3.2801   -0.7944    0.0000 C   0  0  0  0  0  0  0  0  0  0  0  0
   -4.5854   -1.5336    0.0000 C   0  0  0  0  0  0  0  0  0  0  0  0
   -2.1152   -1.7394    0.0000 C   0  0  0  0  0  0  0  0  0  0  0  0
   -0.6501   -1.4177    0.0000 C   0  0  0  0  0  0  0  0  0  0  0  0
    0.0119   -0.0717    0.0000 N   0  0  0  0  0  0  0  0  0  0  0  0
    1.5119   -0.0842    0.0000 C   0  0  0  0  0  0  0  0  0  0  0  0
    2.2511   -1.3894    0.0000 C   0  0  0  0  0  0  0  0  0  0  0  0
    3.7510   -1.4019    0.0000 C   0  0  0  0  0  0  0  0  0  0  0  0
    4.5118   -0.1091    0.0000 C   0  0  0  0  0  0  0  0  0  0  0  0
    3.7726    1.1961    0.0000 C   0  0  0  0  0  0  0  0  0  0  0  0
    2.2726    1.2086    0.0000 C   0  0  0  0  0  0  0  0  0  0  0  0
    5.4035    1.0971    0.0000 O   0  0  0  0  0  0  0  0  0  0  0  0
    6.8262    0.6217    0.0000 C   0  0  0  0  0  0  0  0  0  0  0  0
    6.8137   -0.8782    0.0000 C   0  0  0  0  0  0  0  0  0  0  0  0
    5.3834   -1.3299    0.0000 O   0  0  0  0  0  0  0  0  0  0  0  0
   -0.6276    1.2851    0.0000 C   0  0  0  0  0  0  0  0  0  0  0  0
   -2.0872    1.6310    0.0000 C   0  0  0  0  0  0  0  0  0  0  0  0
   -2.4089    3.0961    0.0000 O   0  0  0  0  0  0  0  0  0  0  0  0
  1  2  1  0
  2  3  2  0
  3  4  1  0
  4  5  2  0
  5  6  1  0
  6  7  2  0
  6  8  1  0
  8  9  1  0
  9 10  1  0
 10 11  1  0
 11 12  1  0
 12 13  1  0
 13 14  1  0
 14 15  1  0
 15 16  1  0
 14 17  1  0
 17 18  1  0
 18 19  1  0
 19 20  1  0
 10 21  1  0
 21 22  1  0
 22 23  1  0
  7  2  1  0
 16 11  1  0
 22  5  1  0
 20 14  1  0
M  END
>  <ChemBL_ID>  (414) 
CHEMBL1289732

>  <Ki>  (414) 
658.0

>  <database>  (414) 
SRSLDB

$$$$

     RDKit          2D

 28 31  0  0  0  0  0  0  0  0999 V2000
    6.8288   -3.6643    0.0000 O   0  0  0  0  0  0  0  0  0  0  0  0
    6.9768   -2.1716    0.0000 C   0  0  0  0  0  0  0  0  0  0  0  0
    8.2714   -1.4140    0.0000 O   0  0  0  0  0  0  0  0  0  0  0  0
    7.9510    0.0514    0.0000 C   0  0  0  0  0  0  0  0  0  0  0  0
    8.8255    1.2700    0.0000 C   0  0  0  0  0  0  0  0  0  0  0  0
    8.2074    2.6368    0.0000 C   0  0  0  0  0  0  0  0  0  0  0  0
    6.7147    2.7848    0.0000 C   0  0  0  0  0  0  0  0  0  0  0  0
    5.8402    1.5661    0.0000 C   0  0  0  0  0  0  0  0  0  0  0  0
    6.4583    0.1994    0.0000 C   0  0  0  0  0  0  0  0  0  0  0  0
    5.8562   -1.1744    0.0000 N   0  0  0  0  0  0  0  0  0  0  0  0
    4.3909   -1.4949    0.0000 C   0  0  0  0  0  0  0  0  0  0  0  0
    3.3807   -0.3861    0.0000 C   0  0  0  0  0  0  0  0  0  0  0  0
    1.9153   -0.7065    0.0000 C   0  0  0  0  0  0  0  0  0  0  0  0
    0.9051    0.4023    0.0000 C   0  0  0  0  0  0  0  0  0  0  0  0
   -0.5603    0.0818    0.0000 C   0  0  0  0  0  0  0  0  0  0  0  0
   -1.5705    1.1906    0.0000 C   0  0  0  0  0  0  0  0  0  0  0  0
   -3.0359    0.8702    0.0000 N   0  0  0  0  0  0  0  0  0  0  0  0
   -4.0461    1.9790    0.0000 C   0  0  0  0  0  0  0  0  0  0  0  0
   -5.5114    1.6585    0.0000 C   0  0  0  0  0  0  0  0  0  0  0  0
   -5.9666    0.2293    0.0000 N   0  0  0  0  0  0  0  0  0  0  0  0
   -7.4320   -0.0912    0.0000 C   0  0  0  0  0  0  0  0  0  0  0  0
   -8.4422    1.0176    0.0000 C   0  0  0  0  0  0  0  0  0  0  0  0
   -9.9076    0.6972    0.0000 C   0  0  0  0  0  0  0  0  0  0  0  0
  -10.3627   -0.7321    0.0000 C   0  0  0  0  0  0  0  0  0  0  0  0
   -9.3525   -1.8409    0.0000 C   0  0  0  0  0  0  0  0  0  0  0  0
   -7.8871   -1.5205    0.0000 C   0  0  0  0  0  0  0  0  0  0  0  0
   -4.9564   -0.8795    0.0000 C   0  0  0  0  0  0  0  0  0  0  0  0
   -3.4910   -0.5591    0.0000 C   0  0  0  0  0  0  0  0  0  0  0  0
  1  2  2  0
  2  3  1  0
  3  4  1  0
  4  5  2  0
  5  6  1  0
  6  7  2  0
  7  8  1  0
  8  9  2  0
  9 10  1  0
 10 11  1  0
 11 12  1  0
 12 13  1  0
 13 14  1  0
 14 15  1  0
 15 16  1  0
 16 17  1  0
 17 18  1  0
 18 19  1  0
 19 20  1  0
 20 21  1  0
 21 22  1  0
 22 23  1  0
 23 24  1  0
 24 25  1  0
 25 26  1  0
 20 27  1  0
 27 28  1  0
 10  2  1  0
 28 17  1  0
  9  4  1  0
 26 21  1  0
M  END
>  <ChemBL_ID>  (415) 
CHEMBL272610

>  <Ki>  (415) 
3.06

>  <database>  (415) 
SRSLDB

$$$$

     RDKit          2D

 20 22  0  0  0  0  0  0  0  0999 V2000
    5.7868    1.8521    0.0000 C   0  0  0  0  0  0  0  0  0  0  0  0
    5.3725    0.4104    0.0000 C   0  0  0  0  0  0  0  0  0  0  0  0
    6.8642    0.2528    0.0000 C   0  0  0  0  0  0  0  0  0  0  0  0
    5.4763   -1.0860    0.0000 C   0  0  0  0  0  0  0  0  0  0  0  0
    4.2323   -1.9240    0.0000 C   0  0  0  0  0  0  0  0  0  0  0  0
    2.8844   -1.2657    0.0000 C   0  0  0  0  0  0  0  0  0  0  0  0
    2.7807    0.2307    0.0000 N   0  0  0  0  0  0  0  0  0  0  0  0
    1.4329    0.8891    0.0000 C   0  0  0  0  0  0  0  0  0  0  0  0
    0.1888    0.0510    0.0000 C   0  0  0  0  0  0  0  0  0  0  0  0
   -1.1590    0.7093    0.0000 C   0  0  0  0  0  0  0  0  0  0  0  0
   -2.4030   -0.1287    0.0000 C   0  0  0  0  0  0  0  0  0  0  0  0
   -2.2993   -1.6252    0.0000 C   0  0  0  0  0  0  0  0  0  0  0  0
   -3.5433   -2.4632    0.0000 C   0  0  0  0  0  0  0  0  0  0  0  0
   -4.8911   -1.8049    0.0000 C   0  0  0  0  0  0  0  0  0  0  0  0
   -4.9949   -0.3085    0.0000 C   0  0  0  0  0  0  0  0  0  0  0  0
   -6.1764    0.6157    0.0000 O   0  0  0  0  0  0  0  0  0  0  0  0
   -5.6625    2.0249    0.0000 C   0  0  0  0  0  0  0  0  0  0  0  0
   -4.1635    1.9717    0.0000 C   0  0  0  0  0  0  0  0  0  0  0  0
   -3.7508    0.5296    0.0000 C   0  0  0  0  0  0  0  0  0  0  0  0
    4.0247    1.0688    0.0000 C   0  0  0  0  0  0  0  0  0  0  0  0
  1  2  1  0
  2  3  1  0
  2  4  1  0
  4  5  1  0
  5  6  1  0
  6  7  1  0
  7  8  1  0
  8  9  1  0
  9 10  1  0
 10 11  1  0
 11 12  2  0
 12 13  1  0
 13 14  2  0
 14 15  1  0
 15 16  1  0
 16 17  1  0
 17 18  2  0
 18 19  1  0
  7 20  1  0
 20  2  1  0
 19 11  1  0
 19 15  2  0
M  END
>  <ChemBL_ID>  (416) 
CHEMBL1962670

>  <Ki>  (416) 
42.3

>  <database>  (416) 
SRSLDB

$$$$

     RDKit          2D

 21 30  0  0  0  0  0  0  0  0999 V2000
    1.6584   -0.6284    0.0000 C   0  0  0  0  0  0  0  0  0  0  0  0
    3.1297   -0.9204    0.0000 C   0  0  0  0  0  0  0  0  0  0  0  0
    3.8621    0.3886    0.0000 C   0  0  0  0  0  0  0  0  0  0  0  0
    5.3334    0.0966    0.0000 C   0  0  0  0  0  0  0  0  0  0  0  0
    5.5103   -1.3930    0.0000 C   0  0  0  0  0  0  0  0  0  0  0  0
    4.1483   -2.0215    0.0000 C   0  0  0  0  0  0  0  0  0  0  0  0
    2.2053    0.2158    0.0000 C   0  0  0  0  0  0  0  0  0  0  0  0
   -0.2841   -0.1960    0.0000 N   0  0  0  0  0  0  0  0  0  0  0  0
   -1.6732    0.3702    0.0000 C   0  0  0  0  0  0  0  0  0  0  0  0
   -2.8580   -0.5497    0.0000 C   0  0  0  0  0  0  0  0  0  0  0  0
   -3.7779    0.6352    0.0000 C   0  0  0  0  0  0  0  0  0  0  0  0
   -4.6977    1.8200    0.0000 C   0  0  0  0  0  0  0  0  0  0  0  0
   -5.8826    0.9001    0.0000 C   0  0  0  0  0  0  0  0  0  0  0  0
   -4.9627   -0.2847    0.0000 C   0  0  0  0  0  0  0  0  0  0  0  0
   -4.0429   -1.4695    0.0000 C   0  0  0  0  0  0  0  0  0  0  0  0
   -3.1230   -2.6544    0.0000 C   0  0  0  0  0  0  0  0  0  0  0  0
   -1.9381   -1.7345    0.0000 C   0  0  0  0  0  0  0  0  0  0  0  0
    0.8530    2.2231    0.0000 C   0  0  0  0  0  0  0  0  0  0  0  0
    1.4815    0.8612    0.0000 C   0  0  0  0  0  0  0  0  0  0  0  0
    2.8435    1.4897    0.0000 C   0  0  0  0  0  0  0  0  0  0  0  0
    2.2149    2.8517    0.0000 C   0  0  0  0  0  0  0  0  0  0  0  0
  1  2  1  0
  2  3  1  0
  3  4  1  0
  4  5  1  0
  5  6  1  0
  6  7  1  0
  7  8  1  0
  8  9  1  0
  9 10  1  0
 10 11  1  0
 11 12  1  0
 12 13  1  0
 13 14  1  0
 14 15  1  0
 15 16  1  0
 16 17  1  0
  7 18  1  0
 18 19  1  0
 19 20  1  0
 20 21  1  0
 19  1  1  0
  6  2  1  0
 15 10  1  0
 21 18  1  0
 20  3  1  0
 21  5  1  0
 17 10  1  0
 14 11  1  0
 17 12  1  0
 16 13  1  0
M  END
>  <ChemBL_ID>  (417) 
CHEMBL2432039

>  <Ki>  (417) 
2.0

>  <database>  (417) 
SRSLDB

$$$$

     RDKit          2D

 46 51  0  0  0  0  0  0  0  0999 V2000
  -15.6952   -4.3304    0.0000 C   0  0  0  0  0  0  0  0  0  0  0  0
  -14.2101   -4.1190    0.0000 O   0  0  0  0  0  0  0  0  0  0  0  0
  -13.6507   -2.7272    0.0000 C   0  0  0  0  0  0  0  0  0  0  0  0
  -14.5763   -1.5469    0.0000 C   0  0  0  0  0  0  0  0  0  0  0  0
  -14.0168   -0.1551    0.0000 C   0  0  0  0  0  0  0  0  0  0  0  0
  -12.5318    0.0563    0.0000 C   0  0  0  0  0  0  0  0  0  0  0  0
  -11.6062   -1.1241    0.0000 C   0  0  0  0  0  0  0  0  0  0  0  0
  -12.1657   -2.5158    0.0000 C   0  0  0  0  0  0  0  0  0  0  0  0
  -11.2401   -3.6962    0.0000 C   0  0  0  0  0  0  0  0  0  0  0  0
   -9.7550   -3.4848    0.0000 C   0  0  0  0  0  0  0  0  0  0  0  0
   -9.1956   -2.0930    0.0000 C   0  0  0  0  0  0  0  0  0  0  0  0
  -10.1212   -0.9127    0.0000 C   0  0  0  0  0  0  0  0  0  0  0  0
   -9.5618    0.4791    0.0000 C   0  0  0  0  0  0  0  0  0  0  0  0
   -8.0767    0.6905    0.0000 C   0  0  0  0  0  0  0  0  0  0  0  0
   -7.5173    2.0823    0.0000 C   0  0  0  0  0  0  0  0  0  0  0  0
   -6.0323    2.2937    0.0000 N   0  0  0  0  0  0  0  0  0  0  0  0
   -5.1067    1.1133    0.0000 C   0  0  0  0  0  0  0  0  0  0  0  0
   -3.6216    1.3247    0.0000 C   0  0  0  0  0  0  0  0  0  0  0  0
   -3.0622    2.7164    0.0000 N   0  0  0  0  0  0  0  0  0  0  0  0
   -1.5772    2.9278    0.0000 C   0  0  0  0  0  0  0  0  0  0  0  0
   -0.6516    1.7475    0.0000 C   0  0  0  0  0  0  0  0  0  0  0  0
    0.8335    1.9589    0.0000 C   0  0  0  0  0  0  0  0  0  0  0  0
    1.3929    3.3506    0.0000 N   0  0  0  0  0  0  0  0  0  0  0  0
    2.8779    3.5620    0.0000 C   0  0  0  0  0  0  0  0  0  0  0  0
    3.8035    2.3817    0.0000 C   0  0  0  0  0  0  0  0  0  0  0  0
    5.2885    2.5930    0.0000 C   0  0  0  0  0  0  0  0  0  0  0  0
    6.2141    1.4127    0.0000 C   0  0  0  0  0  0  0  0  0  0  0  0
    7.6992    1.6241    0.0000 C   0  0  0  0  0  0  0  0  0  0  0  0
    8.6247    0.4437    0.0000 C   0  0  0  0  0  0  0  0  0  0  0  0
   10.1098    0.6551    0.0000 N   0  0  0  0  0  0  0  0  0  0  0  0
   11.0354   -0.5253    0.0000 C   0  0  0  0  0  0  0  0  0  0  0  0
   10.4759   -1.9171    0.0000 C   0  0  0  0  0  0  0  0  0  0  0  0
   11.4015   -3.0974    0.0000 C   0  0  0  0  0  0  0  0  0  0  0  0
   12.8865   -2.8860    0.0000 C   0  0  0  0  0  0  0  0  0  0  0  0
   13.8121   -4.0664    0.0000 N   0  0  0  0  0  4  0  0  0  0  0  0
   15.2972   -3.8550    0.0000 O   0  0  0  0  0  0  0  0  0  0  0  0
   13.2527   -5.4582    0.0000 O   0  0  0  0  0  1  0  0  0  0  0  0
   13.4460   -1.4943    0.0000 C   0  0  0  0  0  0  0  0  0  0  0  0
   14.8546   -0.9787    0.0000 N   0  0  0  0  0  0  0  0  0  0  0  0
   14.7996    0.5203    0.0000 O   0  0  0  0  0  0  0  0  0  0  0  0
   13.3570    0.9311    0.0000 N   0  0  0  0  0  0  0  0  0  0  0  0
   12.5204   -0.3139    0.0000 C   0  0  0  0  0  0  0  0  0  0  0  0
    0.4673    4.5310    0.0000 C   0  0  0  0  0  0  0  0  0  0  0  0
   -1.0177    4.3196    0.0000 C   0  0  0  0  0  0  0  0  0  0  0  0
   -3.9878    3.8968    0.0000 C   0  0  0  0  0  0  0  0  0  0  0  0
   -5.4728    3.6854    0.0000 C   0  0  0  0  0  0  0  0  0  0  0  0
  1  2  1  0
  2  3  1  0
  3  4  2  0
  4  5  1  0
  5  6  2  0
  6  7  1  0
  7  8  2  0
  8  9  1  0
  9 10  1  0
 10 11  1  0
 11 12  1  0
 12 13  1  0
 13 14  1  0
 14 15  1  0
 15 16  1  0
 16 17  1  0
 17 18  1  0
 18 19  1  0
 19 20  1  0
 20 21  1  0
 21 22  1  0
 22 23  1  0
 23 24  1  0
 24 25  1  0
 25 26  1  0
 26 27  1  0
 27 28  1  0
 28 29  1  0
 29 30  1  0
 30 31  1  0
 31 32  2  0
 32 33  1  0
 33 34  2  0
 34 35  1  0
 35 36  2  0
 35 37  1  0
 34 38  1  0
 38 39  2  0
 39 40  1  0
 40 41  1  0
 41 42  2  0
 23 43  1  0
 43 44  1  0
 19 45  1  0
 45 46  1  0
  8  3  1  0
 46 16  1  0
 12  7  1  0
 44 20  1  0
 42 31  1  0
 42 38  1  0
M  CHG  2  35   1  37  -1
M  END
>  <ChemBL_ID>  (418) 
CHEMBL1822595

>  <Ki>  (418) 
1720.0

>  <database>  (418) 
SRSLDB

$$$$

     RDKit          2D

 33 36  0  0  0  0  0  0  0  0999 V2000
   13.3475   -4.3136    0.0000 C   0  0  0  0  0  0  0  0  0  0  0  0
   11.8691   -4.0599    0.0000 C   0  0  0  0  0  0  0  0  0  0  0  0
   11.3496   -2.6527    0.0000 C   0  0  0  0  0  0  0  0  0  0  0  0
    9.8712   -2.3990    0.0000 C   0  0  0  0  0  0  0  0  0  0  0  0
    9.3517   -0.9919    0.0000 C   0  0  0  0  0  0  0  0  0  0  0  0
    7.8734   -0.7382    0.0000 C   0  0  0  0  0  0  0  0  0  0  0  0
    7.3539    0.6690    0.0000 C   0  0  0  0  0  0  0  0  0  0  0  0
    5.8755    0.9227    0.0000 C   0  0  0  0  0  0  0  0  0  0  0  0
    4.9166   -0.2308    0.0000 C   0  0  0  0  0  0  0  0  0  0  0  0
    3.4382    0.0229    0.0000 C   0  0  0  0  0  0  0  0  0  0  0  0
    2.9187    1.4301    0.0000 C   0  0  0  0  0  0  0  0  0  0  0  0
    3.8776    2.5836    0.0000 C   0  0  0  0  0  0  0  0  0  0  0  0
    5.3560    2.3299    0.0000 C   0  0  0  0  0  0  0  0  0  0  0  0
    3.0769    3.8520    0.0000 S   0  0  0  0  0  0  0  0  0  0  0  0
    1.6231    3.4824    0.0000 C   0  0  0  0  0  0  0  0  0  0  0  0
    0.4697    4.4413    0.0000 O   0  0  0  0  0  0  0  0  0  0  0  0
    1.5254    1.9856    0.0000 N   0  0  0  0  0  0  0  0  0  0  0  0
    0.2569    1.1849    0.0000 C   0  0  0  0  0  0  0  0  0  0  0  0
   -1.0707    1.8830    0.0000 C   0  0  0  0  0  0  0  0  0  0  0  0
   -2.3391    1.0823    0.0000 C   0  0  0  0  0  0  0  0  0  0  0  0
   -3.6667    1.7805    0.0000 C   0  0  0  0  0  0  0  0  0  0  0  0
   -4.9352    0.9798    0.0000 N   0  0  0  0  0  0  0  0  0  0  0  0
   -6.2628    1.6779    0.0000 C   0  0  0  0  0  0  0  0  0  0  0  0
   -7.5312    0.8772    0.0000 C   0  0  0  0  0  0  0  0  0  0  0  0
   -7.4720   -0.6217    0.0000 N   0  0  0  0  0  0  0  0  0  0  0  0
   -8.7404   -1.4224    0.0000 C   0  0  0  0  0  0  0  0  0  0  0  0
  -10.0680   -0.7242    0.0000 C   0  0  0  0  0  0  0  0  0  0  0  0
  -11.3365   -1.5249    0.0000 C   0  0  0  0  0  0  0  0  0  0  0  0
  -11.2772   -3.0238    0.0000 C   0  0  0  0  0  0  0  0  0  0  0  0
   -9.9496   -3.7219    0.0000 C   0  0  0  0  0  0  0  0  0  0  0  0
   -8.6812   -2.9212    0.0000 C   0  0  0  0  0  0  0  0  0  0  0  0
   -6.1444   -1.3198    0.0000 C   0  0  0  0  0  0  0  0  0  0  0  0
   -4.8759   -0.5191    0.0000 C   0  0  0  0  0  0  0  0  0  0  0  0
  1  2  1  0
  2  3  1  0
  3  4  1  0
  4  5  1  0
  5  6  1  0
  6  7  1  0
  7  8  1  0
  8  9  2  0
  9 10  1  0
 10 11  2  0
 11 12  1  0
 12 13  2  0
 12 14  1  0
 14 15  1  0
 15 16  2  0
 15 17  1  0
 17 18  1  0
 18 19  1  0
 19 20  1  0
 20 21  1  0
 21 22  1  0
 22 23  1  0
 23 24  1  0
 24 25  1  0
 25 26  1  0
 26 27  1  0
 27 28  1  0
 28 29  1  0
 29 30  1  0
 30 31  1  0
 25 32  1  0
 32 33  1  0
 13  8  1  0
 33 22  1  0
 17 11  1  0
 31 26  1  0
M  END
>  <Ki>  (419) 
29.29

>  <database>  (419) 
SRSLDB

$$$$

     RDKit          2D

 30 35  0  0  0  0  0  0  0  0999 V2000
   -8.3844    2.7377    0.0000 C   0  0  0  0  0  0  0  0  0  0  0  0
   -8.3444    1.2382    0.0000 O   0  0  0  0  0  0  0  0  0  0  0  0
   -7.0258    0.5231    0.0000 C   0  0  0  0  0  0  0  0  0  0  0  0
   -5.7472    1.3075    0.0000 C   0  0  0  0  0  0  0  0  0  0  0  0
   -4.4287    0.5924    0.0000 C   0  0  0  0  0  0  0  0  0  0  0  0
   -4.3887   -0.9071    0.0000 C   0  0  0  0  0  0  0  0  0  0  0  0
   -3.0701   -1.6222    0.0000 N   0  0  0  0  0  0  0  0  0  0  0  0
   -1.7915   -0.8378    0.0000 C   0  0  0  0  0  0  0  0  0  0  0  0
   -1.8315    0.6617    0.0000 C   0  0  0  0  0  0  0  0  0  0  0  0
   -0.5529    1.4460    0.0000 C   0  0  0  0  0  0  0  0  0  0  0  0
    0.7656    0.7309    0.0000 C   0  0  0  0  0  0  0  0  0  0  0  0
    0.8056   -0.7685    0.0000 C   0  0  0  0  0  0  0  0  0  0  0  0
   -0.4729   -1.5529    0.0000 C   0  0  0  0  0  0  0  0  0  0  0  0
    2.1242   -1.4836    0.0000 C   0  0  0  0  0  0  0  0  0  0  0  0
    2.1642   -2.9831    0.0000 C   0  0  0  0  0  0  0  0  0  0  0  0
    3.4828   -3.6982    0.0000 C   0  0  0  0  0  0  0  0  0  0  0  0
    4.7614   -2.9138    0.0000 C   0  0  0  0  0  0  0  0  0  0  0  0
    4.7214   -1.4144    0.0000 C   0  0  0  0  0  0  0  0  0  0  0  0
    3.4028   -0.6993    0.0000 C   0  0  0  0  0  0  0  0  0  0  0  0
    3.3628    0.8002    0.0000 C   0  0  0  0  0  0  0  0  0  0  0  0
    2.0442    1.5153    0.0000 C   0  0  0  0  0  0  0  0  0  0  0  0
    2.5747    0.4887    0.0000 N   0  0  0  0  0  0  0  0  0  0  0  0
    5.9600    0.8695    0.0000 C   0  0  0  0  0  0  0  0  0  0  0  0
    5.9200    2.3689    0.0000 C   0  0  0  0  0  0  0  0  0  0  0  0
    5.1356    3.6475    0.0000 C   0  0  0  0  0  0  0  0  0  0  0  0
    6.6351    3.6875    0.0000 C   0  0  0  0  0  0  0  0  0  0  0  0
    2.8754   -0.4132    0.0000 C   0  0  0  0  0  0  0  0  0  0  0  0
    1.9554   -0.6532    0.0000 C   0  0  0  0  0  0  0  0  0  0  0  0
   -5.6672   -1.6914    0.0000 C   0  0  0  0  0  0  0  0  0  0  0  0
   -6.9858   -0.9763    0.0000 C   0  0  0  0  0  0  0  0  0  0  0  0
  1  2  1  0
  2  3  1  0
  3  4  2  0
  4  5  1  0
  5  6  2  0
  6  7  1  0
  7  8  1  0
  8  9  2  0
  9 10  1  0
 10 11  2  0
 11 12  1  0
 12 13  2  0
 12 14  1  0
 14 15  1  1
 15 16  1  0
 16 17  1  0
 17 18  1  0
 18 19  1  0
 19 20  1  0
 20 21  1  6
 20 22  1  0
 22 23  1  0
 23 24  1  0
 24 25  1  0
 25 26  1  0
 22 27  1  0
 27 28  1  0
  6 29  1  0
 29 30  2  0
 30  3  1  0
 13  8  1  0
 19 14  1  0
 26 24  1  0
 21 11  1  0
 28 14  1  0
M  END
>  <ChemBL_ID>  (420) 
CHEMBL571767

>  <Ki>  (420) 
73.0

>  <database>  (420) 
SRSLDB

$$$$

     RDKit          2D

 69 76  0  0  0  0  0  0  0  0999 V2000
   -6.6602  -10.1966    0.0000 C   0  0  0  0  0  0  0  0  0  0  0  0
   -7.6947   -9.1104    0.0000 C   0  0  0  0  0  0  0  0  0  0  0  0
   -7.2713   -7.6714    0.0000 N   0  0  0  0  0  0  0  0  0  0  0  0
   -5.8134   -7.3186    0.0000 C   0  0  0  0  0  0  0  0  0  0  0  0
   -4.7789   -8.4047    0.0000 C   0  0  0  0  0  0  0  0  0  0  0  0
   -8.3058   -6.5852    0.0000 C   0  0  0  0  0  0  0  0  0  0  0  0
   -9.7637   -6.9380    0.0000 C   0  0  0  0  0  0  0  0  0  0  0  0
  -10.7982   -5.8518    0.0000 C   0  0  0  0  0  0  0  0  0  0  0  0
  -10.3748   -4.4128    0.0000 C   0  0  0  0  0  0  0  0  0  0  0  0
  -11.4093   -3.3266    0.0000 C   0  0  0  0  0  0  0  0  0  0  0  0
  -10.9859   -1.8876    0.0000 C   0  0  0  0  0  0  0  0  0  0  0  0
  -12.0204   -0.8014    0.0000 C   0  0  0  0  0  0  0  0  0  0  0  0
  -11.5969    0.6376    0.0000 C   0  0  0  0  0  0  0  0  0  0  0  0
  -12.6314    1.7238    0.0000 C   0  0  0  0  0  0  0  0  0  0  0  0
  -12.3607    3.1992    0.0000 N   0  0  0  0  0  4  0  0  0  0  0  0
  -11.0080    3.8474    0.0000 C   0  0  0  0  0  0  0  0  0  0  0  0
   -9.7703    3.0000    0.0000 C   0  0  0  0  0  0  0  0  0  0  0  0
   -8.4176    3.6482    0.0000 C   0  0  0  0  0  0  0  0  0  0  0  0
   -7.1799    2.8008    0.0000 C   0  0  0  0  0  0  0  0  0  0  0  0
   -5.8272    3.4491    0.0000 C   0  0  0  0  0  0  0  0  0  0  0  0
   -4.5895    2.6017    0.0000 C   0  0  0  0  0  0  0  0  0  0  0  0
   -4.7044    1.1061    0.0000 O   0  0  0  0  0  0  0  0  0  0  0  0
   -3.2367    3.2499    0.0000 N   0  0  0  0  0  0  0  0  0  0  0  0
   -1.9990    2.4025    0.0000 C   0  0  0  0  0  0  0  0  0  0  0  0
   -0.6463    3.0507    0.0000 C   0  0  0  0  0  0  0  0  0  0  0  0
    0.5914    2.2034    0.0000 C   0  0  0  0  0  0  0  0  0  0  0  0
    1.9441    2.8516    0.0000 C   0  0  0  0  0  0  0  0  0  0  0  0
    3.1818    2.0042    0.0000 C   0  0  0  0  0  0  0  0  0  0  0  0
    4.5345    2.6524    0.0000 C   0  0  0  0  0  0  0  0  0  0  0  0
    5.7723    1.8051    0.0000 O   0  0  0  0  0  0  0  0  0  0  0  0
    7.1250    2.4533    0.0000 C   0  0  0  0  0  0  0  0  0  0  0  0
    7.2400    3.9489    0.0000 C   0  0  0  0  0  0  0  0  0  0  0  0
    8.5927    4.5971    0.0000 C   0  0  0  0  0  0  0  0  0  0  0  0
    9.8304    3.7497    0.0000 C   0  0  0  0  0  0  0  0  0  0  0  0
    9.7154    2.2541    0.0000 C   0  0  0  0  0  0  0  0  0  0  0  0
    8.3627    1.6059    0.0000 C   0  0  0  0  0  0  0  0  0  0  0  0
    8.2477    0.1103    0.0000 C   0  0  0  0  0  0  0  0  0  0  0  0
    9.4854   -0.7371    0.0000 C   0  0  0  0  0  0  0  0  0  0  0  0
   10.8382   -0.0888    0.0000 C   0  0  0  0  0  0  0  0  0  0  0  0
   10.9531    1.4067    0.0000 C   0  0  0  0  0  0  0  0  0  0  0  0
   12.3058    2.0550    0.0000 C   0  0  0  0  0  0  0  0  0  0  0  0
   13.5436    1.2076    0.0000 C   0  0  0  0  0  0  0  0  0  0  0  0
   14.8963    1.8558    0.0000 C   0  0  0  0  0  0  0  0  0  0  0  0
   16.1340    1.0084    0.0000 N   0  0  0  0  0  0  0  0  0  0  0  0
   16.0190   -0.4872    0.0000 C   0  0  0  0  0  0  0  0  0  0  0  0
   17.2567   -1.3345    0.0000 C   0  0  0  0  0  0  0  0  0  0  0  0
   18.6094   -0.6863    0.0000 N   0  0  0  0  0  0  0  0  0  0  0  0
   19.8472   -1.5337    0.0000 C   0  0  0  0  0  0  0  0  0  0  0  0
   19.7322   -3.0293    0.0000 C   0  0  0  0  0  0  0  0  0  0  0  0
   20.9699   -3.8766    0.0000 C   0  0  0  0  0  0  0  0  0  0  0  0
   22.3226   -3.2284    0.0000 C   0  0  0  0  0  0  0  0  0  0  0  0
   22.4376   -1.7328    0.0000 C   0  0  0  0  0  0  0  0  0  0  0  0
   21.1999   -0.8855    0.0000 C   0  0  0  0  0  0  0  0  0  0  0  0
   18.7244    0.8093    0.0000 C   0  0  0  0  0  0  0  0  0  0  0  0
   17.4867    1.6566    0.0000 C   0  0  0  0  0  0  0  0  0  0  0  0
  -13.6803    3.9125    0.0000 C   0  0  0  0  0  0  0  0  0  0  0  0
  -14.0331    5.3704    0.0000 C   0  0  0  0  0  0  0  0  0  0  0  0
  -15.4721    5.7939    0.0000 C   0  0  0  0  0  0  0  0  0  0  0  0
  -16.5583    4.7594    0.0000 C   0  0  0  0  0  0  0  0  0  0  0  0
  -16.2055    3.3014    0.0000 C   0  0  0  0  0  0  0  0  0  0  0  0
  -14.7665    2.8780    0.0000 C   0  0  0  0  0  0  0  0  0  0  0  0
  -14.1182    1.5253    0.0000 C   0  0  0  0  0  0  0  0  0  0  0  0
  -15.5313    1.0220    0.0000 C   0  0  0  0  0  0  0  0  0  0  0  0
  -13.7654    0.0674    0.0000 C   0  0  0  0  0  0  0  0  0  0  0  0
   -9.5279   -1.5348    0.0000 C   0  0  0  0  0  0  0  0  0  0  0  0
   -9.1045   -0.0958    0.0000 O   0  0  0  0  0  0  0  0  0  0  0  0
   -8.4934   -2.6210    0.0000 O   0  0  0  0  0  0  0  0  0  0  0  0
   -8.9169   -4.0600    0.0000 C   0  0  0  0  0  0  0  0  0  0  0  0
   -7.8824   -5.1462    0.0000 C   0  0  0  0  0  0  0  0  0  0  0  0
  1  2  1  0
  2  3  1  0
  3  4  1  0
  4  5  1  0
  3  6  1  0
  6  7  2  0
  7  8  1  0
  8  9  2  0
  9 10  1  0
 10 11  2  0
 11 12  1  0
 12 13  2  0
 13 14  1  0
 14 15  2  0
 15 16  1  0
 16 17  1  0
 17 18  1  0
 18 19  1  0
 19 20  1  0
 20 21  1  0
 21 22  2  0
 21 23  1  0
 23 24  1  0
 24 25  1  0
 25 26  1  0
 26 27  1  0
 27 28  1  0
 28 29  1  0
 29 30  1  0
 30 31  1  0
 31 32  2  0
 32 33  1  0
 33 34  2  0
 34 35  1  0
 35 36  2  0
 36 37  1  0
 37 38  1  0
 38 39  1  0
 39 40  1  0
 40 41  1  0
 41 42  1  0
 42 43  1  0
 43 44  1  0
 44 45  1  0
 45 46  1  0
 46 47  1  0
 47 48  1  0
 48 49  1  0
 49 50  1  0
 50 51  1  0
 51 52  1  0
 52 53  1  0
 47 54  1  0
 54 55  1  0
 15 56  1  0
 56 57  2  0
 57 58  1  0
 58 59  2  0
 59 60  1  0
 60 61  2  0
 61 62  1  0
 62 63  1  0
 62 64  1  0
 11 65  1  0
 65 66  2  0
 65 67  1  0
 67 68  1  0
 68 69  2  0
 69  6  1  0
 68  9  1  0
 62 14  1  0
 36 31  1  0
 55 44  1  0
 61 56  1  0
 40 35  1  0
 53 48  1  0
M  CHG  1  15   1
M  END
>  <ChemBL_ID>  (421) 
CHEMBL3306653

>  <Ki>  (421) 
161.0

>  <database>  (421) 
SRSLDB

$$$$

     RDKit          2D

 37 40  0  0  0  0  0  0  0  0999 V2000
   -3.6905    1.6839    0.0000 C   0  0  0  0  0  0  0  0  0  0  0  0
   -2.3482    1.0144    0.0000 C   0  0  0  0  0  0  0  0  0  0  0  0
   -1.0059    0.3448    0.0000 C   0  0  0  0  0  0  0  0  0  0  0  0
   -0.9146   -1.1524    0.0000 N   0  0  0  0  0  0  0  0  0  0  0  0
    0.4277   -1.8219    0.0000 C   0  0  0  0  0  0  0  0  0  0  0  0
    1.6787   -0.9943    0.0000 C   0  0  0  0  0  0  0  0  0  0  0  0
    3.0209   -1.6638    0.0000 C   0  0  0  0  0  0  0  0  0  0  0  0
    4.2719   -0.8361    0.0000 C   0  0  0  0  0  0  0  0  0  0  0  0
    5.6142   -1.5057    0.0000 C   0  0  0  0  0  0  0  0  0  0  0  0
    6.8652   -0.6780    0.0000 C   0  0  0  0  0  0  0  0  0  0  0  0
    6.7739    0.8192    0.0000 C   0  0  0  0  0  0  0  0  0  0  0  0
    8.0248    1.6469    0.0000 C   0  0  0  0  0  0  0  0  0  0  0  0
    7.9335    3.1441    0.0000 O   0  0  0  0  0  0  0  0  0  0  0  0
    9.3671    0.9774    0.0000 C   0  0  0  0  0  0  0  0  0  0  0  0
    9.4584   -0.5198    0.0000 C   0  0  0  0  0  0  0  0  0  0  0  0
   10.8007   -1.1894    0.0000 C   0  0  0  0  0  0  0  0  0  0  0  0
   12.0517   -0.3617    0.0000 C   0  0  0  0  0  0  0  0  0  0  0  0
   13.3940   -1.0312    0.0000 C   0  0  0  0  0  0  0  0  0  0  0  0
   11.9604    1.1355    0.0000 C   0  0  0  0  0  0  0  0  0  0  0  0
   10.6181    1.8051    0.0000 C   0  0  0  0  0  0  0  0  0  0  0  0
    5.4316    1.4888    0.0000 C   0  0  0  0  0  0  0  0  0  0  0  0
    4.1806    0.6611    0.0000 C   0  0  0  0  0  0  0  0  0  0  0  0
   -2.1656   -1.9801    0.0000 C   0  0  0  0  0  0  0  0  0  0  0  0
   -3.5079   -1.3105    0.0000 C   0  0  0  0  0  0  0  0  0  0  0  0
   -4.7588   -2.1382    0.0000 C   0  0  0  0  0  0  0  0  0  0  0  0
   -6.1011   -1.4687    0.0000 N   0  0  0  0  0  0  0  0  0  0  0  0
   -6.1924    0.0285    0.0000 C   0  0  0  0  0  0  0  0  0  0  0  0
   -7.5347    0.6981    0.0000 C   0  0  0  0  0  0  0  0  0  0  0  0
   -8.7857   -0.1296    0.0000 N   0  0  0  0  0  0  0  0  0  0  0  0
  -10.1280    0.5399    0.0000 C   0  0  0  0  0  0  0  0  0  0  0  0
  -10.2193    2.0371    0.0000 C   0  0  0  0  0  0  0  0  0  0  0  0
  -11.5616    2.7067    0.0000 C   0  0  0  0  0  0  0  0  0  0  0  0
  -12.8125    1.8790    0.0000 C   0  0  0  0  0  0  0  0  0  0  0  0
  -12.7212    0.3818    0.0000 C   0  0  0  0  0  0  0  0  0  0  0  0
  -11.3789   -0.2878    0.0000 C   0  0  0  0  0  0  0  0  0  0  0  0
   -8.6944   -1.6268    0.0000 C   0  0  0  0  0  0  0  0  0  0  0  0
   -7.3521   -2.2964    0.0000 C   0  0  0  0  0  0  0  0  0  0  0  0
  1  2  3  0
  2  3  1  0
  3  4  1  0
  4  5  1  0
  5  6  1  0
  6  7  1  0
  7  8  1  0
  8  9  2  0
  9 10  1  0
 10 11  2  0
 11 12  1  0
 12 13  2  0
 12 14  1  0
 14 15  2  0
 15 16  1  0
 16 17  2  0
 17 18  1  0
 17 19  1  0
 19 20  2  0
 11 21  1  0
 21 22  2  0
  4 23  1  0
 23 24  1  0
 24 25  1  0
 25 26  1  0
 26 27  1  0
 27 28  1  0
 28 29  1  0
 29 30  1  0
 30 31  1  0
 31 32  1  0
 32 33  1  0
 33 34  1  0
 34 35  1  0
 29 36  1  0
 36 37  1  0
 22  8  1  0
 37 26  1  0
 20 14  1  0
 35 30  1  0
M  END
>  <Ki>  (422) 
17.37

>  <database>  (422) 
SRSLDB

$$$$

     RDKit          2D

 25 27  0  0  0  0  0  0  0  0999 V2000
    0.8229   -2.2844    0.0000 C   0  0  0  0  0  0  0  0  0  0  0  0
    0.0899   -0.9757    0.0000 C   0  0  0  0  0  0  0  0  0  0  0  0
    0.8568    0.3134    0.0000 O   0  0  0  0  0  0  0  0  0  0  0  0
    2.3567    0.2939    0.0000 C   0  0  0  0  0  0  0  0  0  0  0  0
    3.0897   -1.0148    0.0000 C   0  0  0  0  0  0  0  0  0  0  0  0
    4.5896   -1.0344    0.0000 C   0  0  0  0  0  0  0  0  0  0  0  0
    5.3564    0.2547    0.0000 C   0  0  0  0  0  0  0  0  0  0  0  0
    6.8563    0.2352    0.0000 C   0  0  0  0  0  0  0  0  0  0  0  0
    6.8367   -1.2647    0.0000 C   0  0  0  0  0  0  0  0  0  0  0  0
    6.8759    1.7351    0.0000 C   0  0  0  0  0  0  0  0  0  0  0  0
    8.3562    0.2156    0.0000 C   0  0  0  0  0  0  0  0  0  0  0  0
    4.6234    1.5634    0.0000 C   0  0  0  0  0  0  0  0  0  0  0  0
    3.1236    1.5830    0.0000 C   0  0  0  0  0  0  0  0  0  0  0  0
   -1.4099   -0.9562    0.0000 C   0  0  0  0  0  0  0  0  0  0  0  0
   -2.1768   -2.2453    0.0000 O   0  0  0  0  0  0  0  0  0  0  0  0
   -2.1429    0.3526    0.0000 O   0  0  0  0  0  0  0  0  0  0  0  0
   -3.6428    0.3721    0.0000 C   0  0  0  0  0  0  0  0  0  0  0  0
   -4.4097   -0.9170    0.0000 C   0  0  0  0  0  0  0  0  0  0  0  0
   -5.9096   -0.8975    0.0000 C   0  0  0  0  0  0  0  0  0  0  0  0
   -7.3300   -0.4154    0.0000 C   0  0  0  0  0  0  0  0  0  0  0  0
   -7.3104    1.0845    0.0000 C   0  0  0  0  0  0  0  0  0  0  0  0
   -5.8779    1.5294    0.0000 C   0  0  0  0  0  0  0  0  0  0  0  0
   -4.3758    1.6808    0.0000 C   0  0  0  0  0  0  0  0  0  0  0  0
   -5.0121    0.3045    0.0000 N   0  0  0  0  0  0  0  0  0  0  0  0
   -4.2362    0.4872    0.0000 C   0  0  0  0  0  0  0  0  0  0  0  0
  1  2  1  0
  2  3  1  0
  3  4  1  0
  4  5  2  0
  5  6  1  0
  6  7  2  0
  7  8  1  0
  8  9  1  0
  8 10  1  0
  8 11  1  0
  7 12  1  0
 12 13  2  0
  2 14  1  0
 14 15  2  0
 14 16  1  0
 16 17  1  0
 17 18  1  0
 18 19  1  0
 19 20  1  0
 20 21  1  0
 21 22  1  0
 22 23  1  0
 22 24  1  0
 24 25  1  0
 13  4  1  0
 23 17  1  0
 24 19  1  0
M  END
>  <ChemBL_ID>  (423) 
CHEMBL1199387

>  <Ki>  (423) 
275.0

>  <database>  (423) 
SRSLDB

$$$$

     RDKit          2D

 25 27  0  0  0  0  0  0  0  0999 V2000
   -1.9331    2.1374    0.0000 C   0  0  0  0  0  0  0  0  0  0  0  0
   -3.3873    1.7696    0.0000 C   0  0  0  0  0  0  0  0  0  0  0  0
   -4.4329    2.8451    0.0000 O   0  0  0  0  0  0  0  0  0  0  0  0
   -3.7959    0.3263    0.0000 N   0  0  0  0  0  0  0  0  0  0  0  0
   -2.7503   -0.7492    0.0000 C   0  0  0  0  0  0  0  0  0  0  0  0
   -1.2960   -0.3814    0.0000 C   0  0  0  0  0  0  0  0  0  0  0  0
   -0.2504   -1.4569    0.0000 C   0  0  0  0  0  0  0  0  0  0  0  0
    1.2038   -1.0891    0.0000 N   0  0  0  0  0  0  0  0  0  0  0  0
    2.2494   -2.1646    0.0000 C   0  0  0  0  0  0  0  0  0  0  0  0
    3.7036   -1.7968    0.0000 C   0  0  0  0  0  0  0  0  0  0  0  0
    4.1122   -0.3535    0.0000 N   0  0  0  0  0  0  0  0  0  0  0  0
    5.5664    0.0143    0.0000 C   0  0  0  0  0  0  0  0  0  0  0  0
    6.6120   -1.0612    0.0000 C   0  0  0  0  0  0  0  0  0  0  0  0
    8.0663   -0.6934    0.0000 C   0  0  0  0  0  0  0  0  0  0  0  0
    8.4748    0.7499    0.0000 C   0  0  0  0  0  0  0  0  0  0  0  0
    7.4292    1.8254    0.0000 C   0  0  0  0  0  0  0  0  0  0  0  0
    5.9750    1.4576    0.0000 C   0  0  0  0  0  0  0  0  0  0  0  0
    3.0666    0.7220    0.0000 C   0  0  0  0  0  0  0  0  0  0  0  0
    1.6124    0.3542    0.0000 C   0  0  0  0  0  0  0  0  0  0  0  0
   -5.2501   -0.0415    0.0000 C   0  0  0  0  0  0  0  0  0  0  0  0
   -6.2957    1.0340    0.0000 C   0  0  0  0  0  0  0  0  0  0  0  0
   -7.7499    0.6662    0.0000 C   0  0  0  0  0  0  0  0  0  0  0  0
   -8.1585   -0.7771    0.0000 C   0  0  0  0  0  0  0  0  0  0  0  0
   -7.1129   -1.8526    0.0000 C   0  0  0  0  0  0  0  0  0  0  0  0
   -5.6587   -1.4848    0.0000 N   0  0  0  0  0  0  0  0  0  0  0  0
  1  2  1  0
  2  3  2  0
  2  4  1  0
  4  5  1  0
  5  6  1  0
  6  7  1  0
  7  8  1  0
  8  9  1  0
  9 10  1  0
 10 11  1  0
 11 12  1  0
 12 13  1  0
 13 14  1  0
 14 15  1  0
 15 16  1  0
 16 17  1  0
 11 18  1  0
 18 19  1  0
  4 20  1  0
 20 21  2  0
 21 22  1  0
 22 23  2  0
 23 24  1  0
 24 25  2  0
 19  8  1  0
 25 20  1  0
 17 12  1  0
M  END
>  <Ki>  (424) 
246.0

>  <database>  (424) 
SRSLDB

$$$$

     RDKit          2D

 32 35  0  0  0  0  0  0  0  0999 V2000
    9.5858   -3.2672    0.0000 C   0  0  0  0  0  0  0  0  0  0  0  0
    9.3726   -1.7824    0.0000 C   0  0  0  0  0  0  0  0  0  0  0  0
   10.5517   -0.8553    0.0000 O   0  0  0  0  0  0  0  0  0  0  0  0
    7.9801   -1.2248    0.0000 C   0  0  0  0  0  0  0  0  0  0  0  0
    6.8009   -2.1519    0.0000 C   0  0  0  0  0  0  0  0  0  0  0  0
    5.4084   -1.5942    0.0000 C   0  0  0  0  0  0  0  0  0  0  0  0
    5.1951   -0.1095    0.0000 C   0  0  0  0  0  0  0  0  0  0  0  0
    6.3743    0.8176    0.0000 C   0  0  0  0  0  0  0  0  0  0  0  0
    7.7668    0.2600    0.0000 C   0  0  0  0  0  0  0  0  0  0  0  0
    5.8570    2.2256    0.0000 O   0  0  0  0  0  0  0  0  0  0  0  0
    4.3580    2.1687    0.0000 C   0  0  0  0  0  0  0  0  0  0  0  0
    3.4309    3.3479    0.0000 O   0  0  0  0  0  0  0  0  0  0  0  0
    3.9490    0.7255    0.0000 N   0  0  0  0  0  0  0  0  0  0  0  0
    2.5410    0.2082    0.0000 C   0  0  0  0  0  0  0  0  0  0  0  0
    1.3890    1.1689    0.0000 C   0  0  0  0  0  0  0  0  0  0  0  0
   -0.0190    0.6515    0.0000 C   0  0  0  0  0  0  0  0  0  0  0  0
   -1.1710    1.6122    0.0000 C   0  0  0  0  0  0  0  0  0  0  0  0
   -2.5789    1.0949    0.0000 N   0  0  0  0  0  0  0  0  0  0  0  0
   -3.7309    2.0555    0.0000 C   0  0  0  0  0  0  0  0  0  0  0  0
   -3.4750    3.5335    0.0000 C   0  0  0  0  0  0  0  0  0  0  0  0
   -5.1389    1.5382    0.0000 C   0  0  0  0  0  0  0  0  0  0  0  0
   -5.3949    0.0602    0.0000 N   0  0  0  0  0  0  0  0  0  0  0  0
   -6.8028   -0.4571    0.0000 C   0  0  0  0  0  0  0  0  0  0  0  0
   -7.9548    0.5035    0.0000 C   0  0  0  0  0  0  0  0  0  0  0  0
   -9.3628   -0.0138    0.0000 C   0  0  0  0  0  0  0  0  0  0  0  0
   -9.6188   -1.4918    0.0000 C   0  0  0  0  0  0  0  0  0  0  0  0
  -11.0267   -2.0091    0.0000 F   0  0  0  0  0  0  0  0  0  0  0  0
   -8.4667   -2.4525    0.0000 C   0  0  0  0  0  0  0  0  0  0  0  0
   -7.0588   -1.9351    0.0000 C   0  0  0  0  0  0  0  0  0  0  0  0
   -4.2429   -0.9005    0.0000 C   0  0  0  0  0  0  0  0  0  0  0  0
   -2.8349   -0.3831    0.0000 C   0  0  0  0  0  0  0  0  0  0  0  0
   -1.6829   -1.3438    0.0000 C   0  0  0  0  0  0  0  0  0  0  0  0
  1  2  1  0
  2  3  2  0
  2  4  1  0
  4  5  2  0
  5  6  1  0
  6  7  2  0
  7  8  1  0
  8  9  2  0
  8 10  1  0
 10 11  1  0
 11 12  2  0
 11 13  1  0
 13 14  1  0
 14 15  1  0
 15 16  1  0
 16 17  1  0
 17 18  1  0
 18 19  1  0
 19 20  1  1
 19 21  1  0
 21 22  1  0
 22 23  1  0
 23 24  2  0
 24 25  1  0
 25 26  2  0
 26 27  1  0
 26 28  1  0
 28 29  2  0
 22 30  1  0
 30 31  1  0
 31 32  1  1
  9  4  1  0
 31 18  1  0
 13  7  1  0
 29 23  1  0
M  END
>  <Ki>  (425) 
14.9

>  <database>  (425) 
SRSLDB

$$$$

     RDKit          2D

 23 25  0  0  0  0  0  0  0  0999 V2000
    7.3479   -2.7506    0.0000 C   0  0  0  0  0  0  0  0  0  0  0  0
    7.0641   -1.2777    0.0000 O   0  0  0  0  0  0  0  0  0  0  0  0
    5.6466   -0.7871    0.0000 C   0  0  0  0  0  0  0  0  0  0  0  0
    4.5129   -1.7694    0.0000 C   0  0  0  0  0  0  0  0  0  0  0  0
    3.0955   -1.2787    0.0000 C   0  0  0  0  0  0  0  0  0  0  0  0
    2.8116    0.1942    0.0000 C   0  0  0  0  0  0  0  0  0  0  0  0
    3.9453    1.1764    0.0000 C   0  0  0  0  0  0  0  0  0  0  0  0
    5.3628    0.6858    0.0000 C   0  0  0  0  0  0  0  0  0  0  0  0
    3.6614    2.6493    0.0000 C   0  0  0  0  0  0  0  0  0  0  0  0
    2.2439    3.1400    0.0000 C   0  0  0  0  0  0  0  0  0  0  0  0
    1.1103    2.1577    0.0000 C   0  0  0  0  0  0  0  0  0  0  0  0
    1.3941    0.6848    0.0000 C   0  0  0  0  0  0  0  0  0  0  0  0
    0.2605   -0.2974    0.0000 C   0  0  0  0  0  0  0  0  0  0  0  0
   -1.1570    0.1932    0.0000 C   0  0  0  0  0  0  0  0  0  0  0  0
   -2.2907   -0.7890    0.0000 C   0  0  0  0  0  0  0  0  0  0  0  0
   -3.7081   -0.2984    0.0000 N   0  0  0  0  0  0  0  0  0  0  0  0
   -3.9920    1.1745    0.0000 C   0  0  0  0  0  0  0  0  0  0  0  0
   -5.4095    1.6651    0.0000 C   0  0  0  0  0  0  0  0  0  0  0  0
   -6.5431    0.6829    0.0000 C   0  0  0  0  0  0  0  0  0  0  0  0
   -6.2593   -0.7900    0.0000 C   0  0  0  0  0  0  0  0  0  0  0  0
   -6.4963   -2.2712    0.0000 C   0  0  0  0  0  0  0  0  0  0  0  0
   -7.7591   -0.8138    0.0000 C   0  0  0  0  0  0  0  0  0  0  0  0
   -4.8418   -1.2807    0.0000 C   0  0  0  0  0  0  0  0  0  0  0  0
  1  2  1  0
  2  3  1  0
  3  4  2  0
  4  5  1  0
  5  6  2  0
  6  7  1  0
  7  8  2  0
  7  9  1  0
  9 10  1  0
 10 11  1  0
 11 12  1  0
 12 13  1  0
 13 14  1  0
 14 15  1  0
 15 16  1  0
 16 17  1  0
 17 18  1  0
 18 19  1  0
 19 20  1  0
 20 21  1  0
 20 22  1  0
 20 23  1  0
  8  3  1  0
 23 16  1  0
 12  6  1  0
M  END
>  <ChemBL_ID>  (426) 
CHEMBL128996

>  <Compound_Key>  (426) 
14

>  <Ki>  (426) 
172.0

>  <database>  (426) 
Literature

>  <Assay_ChEMBL_ID>  (426) 
CHEMBL860171

>  <Document_ChEMBL_ID>  (426) 
CHEMBL1141188

$$$$

     RDKit          2D

 30 33  0  0  0  0  0  0  0  0999 V2000
   -5.4264   -2.8172    0.0000 O   0  0  0  0  0  0  0  0  0  0  0  0
   -4.8539   -1.4308    0.0000 C   0  0  0  0  0  0  0  0  0  0  0  0
   -5.7684   -0.2418    0.0000 C   0  0  0  0  0  0  0  0  0  0  0  0
   -5.1959    1.1447    0.0000 C   0  0  0  0  0  0  0  0  0  0  0  0
   -6.1103    2.3337    0.0000 C   0  0  0  0  0  0  0  0  0  0  0  0
   -7.5973    2.1363    0.0000 C   0  0  0  0  0  0  0  0  0  0  0  0
   -8.5118    3.3253    0.0000 F   0  0  0  0  0  0  0  0  0  0  0  0
   -8.1698    0.7498    0.0000 C   0  0  0  0  0  0  0  0  0  0  0  0
   -7.2553   -0.4392    0.0000 C   0  0  0  0  0  0  0  0  0  0  0  0
   -3.3670   -1.2333    0.0000 C   0  0  0  0  0  0  0  0  0  0  0  0
   -2.4525   -2.4223    0.0000 C   0  0  0  0  0  0  0  0  0  0  0  0
   -0.9655   -2.2249    0.0000 C   0  0  0  0  0  0  0  0  0  0  0  0
   -0.3931   -0.8385    0.0000 N   0  0  0  0  0  0  0  0  0  0  0  0
    1.0939   -0.6410    0.0000 C   0  0  0  0  0  0  0  0  0  0  0  0
    2.0084   -1.8300    0.0000 C   0  0  0  0  0  0  0  0  0  0  0  0
    3.4953   -1.6326    0.0000 C   0  0  0  0  0  0  0  0  0  0  0  0
    4.4098   -2.8216    0.0000 C   0  0  0  0  0  0  0  0  0  0  0  0
    5.8967   -2.6242    0.0000 C   0  0  0  0  0  0  0  0  0  0  0  0
    6.4692   -1.2377    0.0000 C   0  0  0  0  0  0  0  0  0  0  0  0
    5.5547   -0.0487    0.0000 C   0  0  0  0  0  0  0  0  0  0  0  0
    6.1272    1.3378    0.0000 O   0  0  0  0  0  0  0  0  0  0  0  0
    7.6142    1.5352    0.0000 C   0  0  0  0  0  0  0  0  0  0  0  0
    8.1867    2.9217    0.0000 C   0  0  0  0  0  0  0  0  0  0  0  0
    9.6736    3.1191    0.0000 F   0  0  0  0  0  0  0  0  0  0  0  0
    4.0678   -0.2461    0.0000 C   0  0  0  0  0  0  0  0  0  0  0  0
    3.1533    0.9429    0.0000 C   0  0  0  0  0  0  0  0  0  0  0  0
    1.6664    0.7454    0.0000 C   0  0  0  0  0  0  0  0  0  0  0  0
    0.7519    1.9345    0.0000 O   0  0  0  0  0  0  0  0  0  0  0  0
   -1.3075    0.3506    0.0000 C   0  0  0  0  0  0  0  0  0  0  0  0
   -2.7945    0.1531    0.0000 C   0  0  0  0  0  0  0  0  0  0  0  0
  1  2  2  0
  2  3  1  0
  3  4  2  0
  4  5  1  0
  5  6  2  0
  6  7  1  0
  6  8  1  0
  8  9  2  0
  2 10  1  0
 10 11  1  0
 11 12  1  0
 12 13  1  0
 14 13  1  1
 14 15  1  0
 15 16  1  0
 16 17  2  0
 17 18  1  0
 18 19  2  0
 19 20  1  0
 20 21  1  0
 21 22  1  0
 22 23  1  0
 23 24  1  0
 20 25  2  0
 25 26  1  0
 26 27  1  0
 27 28  1  6
 13 29  1  0
 29 30  1  0
  9  3  1  0
 30 10  1  0
 27 14  1  0
 25 16  1  0
M  END
>  <Ki>  (427) 
7145.0

>  <database>  (427) 
SRSLDB

$$$$

     RDKit          2D

 38 41  0  0  0  0  0  0  0  0999 V2000
   -3.3587   -2.9032    0.0000 C   0  0  0  0  0  0  0  0  0  0  0  0
   -1.9769   -2.3195    0.0000 O   0  0  0  0  0  0  0  0  0  0  0  0
   -1.7915   -0.8310    0.0000 C   0  0  0  0  0  0  0  0  0  0  0  0
   -2.9879    0.0738    0.0000 C   0  0  0  0  0  0  0  0  0  0  0  0
   -2.8025    1.5623    0.0000 C   0  0  0  0  0  0  0  0  0  0  0  0
   -1.4207    2.1460    0.0000 C   0  0  0  0  0  0  0  0  0  0  0  0
   -1.2353    3.6345    0.0000 C   0  0  0  0  0  0  0  0  0  0  0  0
   -0.2244    1.2412    0.0000 C   0  0  0  0  0  0  0  0  0  0  0  0
   -0.4097   -0.2473    0.0000 C   0  0  0  0  0  0  0  0  0  0  0  0
    0.7866   -1.1521    0.0000 N   0  0  0  0  0  0  0  0  0  0  0  0
    2.1684   -0.5684    0.0000 C   0  0  0  0  0  0  0  0  0  0  0  0
    2.3538    0.9201    0.0000 O   0  0  0  0  0  0  0  0  0  0  0  0
    3.3648   -1.4732    0.0000 O   0  0  0  0  0  0  0  0  0  0  0  0
    4.7466   -0.8895    0.0000 C   0  0  0  0  0  0  0  0  0  0  0  0
    5.9429   -1.7943    0.0000 C   0  0  0  0  0  0  0  0  0  0  0  0
    7.3247   -1.2106    0.0000 C   0  0  0  0  0  0  0  0  0  0  0  0
    8.7065   -0.6269    0.0000 C   0  0  0  0  0  0  0  0  0  0  0  0
    8.8919    0.8616    0.0000 C   0  0  0  0  0  0  0  0  0  0  0  0
    7.6955    1.7664    0.0000 C   0  0  0  0  0  0  0  0  0  0  0  0
    6.3137    1.1827    0.0000 C   0  0  0  0  0  0  0  0  0  0  0  0
    4.9320    0.5990    0.0000 C   0  0  0  0  0  0  0  0  0  0  0  0
    6.1283   -0.3058    0.0000 N   0  0  0  0  0  0  0  0  0  0  0  0
    4.7466   -0.8895    0.0000 C   0  0  0  0  0  0  0  0  0  0  0  0
    3.5502    0.0153    0.0000 C   0  0  0  0  0  0  0  0  0  0  0  0
    2.1684   -0.5684    0.0000 C   0  0  0  0  0  0  0  0  0  0  0  0
    0.9720    0.3364    0.0000 C   0  0  0  0  0  0  0  0  0  0  0  0
   -0.4097   -0.2473    0.0000 C   0  0  0  0  0  0  0  0  0  0  0  0
   -1.6061    0.6575    0.0000 C   0  0  0  0  0  0  0  0  0  0  0  0
   -2.9879    0.0738    0.0000 N   0  0  0  0  0  0  0  0  0  0  0  0
   -4.1843    0.9786    0.0000 C   0  0  0  0  0  0  0  0  0  0  0  0
   -3.9989    2.4671    0.0000 O   0  0  0  0  0  0  0  0  0  0  0  0
   -5.5661    0.3949    0.0000 C   0  0  0  0  0  0  0  0  0  0  0  0
   -6.7624    1.2997    0.0000 C   0  0  0  0  0  0  0  0  0  0  0  0
   -8.1442    0.7160    0.0000 C   0  0  0  0  0  0  0  0  0  0  0  0
   -8.3296   -0.7725    0.0000 C   0  0  0  0  0  0  0  0  0  0  0  0
   -9.7114   -1.3562    0.0000 I   0  0  0  0  0  0  0  0  0  0  0  0
   -7.1332   -1.6773    0.0000 C   0  0  0  0  0  0  0  0  0  0  0  0
   -5.7514   -1.0936    0.0000 C   0  0  0  0  0  0  0  0  0  0  0  0
  1  2  1  0
  2  3  1  0
  3  4  2  0
  4  5  1  0
  5  6  2  0
  6  7  1  0
  6  8  1  0
  8  9  2  0
  9 10  1  0
 10 11  1  0
 11 12  2  0
 11 13  1  0
 13 14  1  0
 14 15  1  0
 15 16  1  0
 16 17  1  0
 17 18  1  0
 18 19  1  0
 19 20  1  0
 20 21  1  0
 20 22  1  0
 22 23  1  0
 23 24  1  0
 24 25  1  0
 25 26  1  0
 26 27  1  0
 27 28  1  0
 28 29  1  0
 29 30  1  0
 30 31  2  0
 30 32  1  0
 32 33  2  0
 33 34  1  0
 34 35  2  0
 35 36  1  0
 35 37  1  0
 37 38  2  0
  9  3  1  0
 21 14  1  0
 38 32  1  0
 22 16  1  0
M  END
>  <Ki>  (428) 
1009.0

>  <database>  (428) 
SRSLDB

$$$$

     RDKit          2D

 21 27  0  0  0  0  0  0  0  0999 V2000
    4.8913    2.9429    0.0000 F   0  0  0  0  0  0  0  0  0  0  0  0
    4.7172    1.4530    0.0000 C   0  0  0  0  0  0  0  0  0  0  0  0
    5.9204    0.5573    0.0000 C   0  0  0  0  0  0  0  0  0  0  0  0
    5.7463   -0.9325    0.0000 C   0  0  0  0  0  0  0  0  0  0  0  0
    4.3690   -1.5267    0.0000 C   0  0  0  0  0  0  0  0  0  0  0  0
    3.1658   -0.6310    0.0000 C   0  0  0  0  0  0  0  0  0  0  0  0
    1.7885   -1.2251    0.0000 C   0  0  0  0  0  0  0  0  0  0  0  0
    0.5853   -0.3294    0.0000 N   0  0  0  0  0  0  0  0  0  0  0  0
   -0.7920   -0.9236    0.0000 C   0  0  0  0  0  0  0  0  0  0  0  0
   -2.0455   -1.3359    0.0000 O   0  0  0  0  0  0  0  0  0  0  0  0
   -2.6144   -2.5265    0.0000 C   0  0  0  0  0  0  0  0  0  0  0  0
   -1.2603   -1.8813    0.0000 C   0  0  0  0  0  0  0  0  0  0  0  0
   -5.4895    0.7421    0.0000 C   0  0  0  0  0  0  0  0  0  0  0  0
   -5.1606    2.2056    0.0000 C   0  0  0  0  0  0  0  0  0  0  0  0
   -3.6671    2.3451    0.0000 C   0  0  0  0  0  0  0  0  0  0  0  0
   -3.0729    0.9678    0.0000 C   0  0  0  0  0  0  0  0  0  0  0  0
   -4.1992   -0.0229    0.0000 C   0  0  0  0  0  0  0  0  0  0  0  0
   -3.2086   -1.1492    0.0000 C   0  0  0  0  0  0  0  0  0  0  0  0
   -2.0823   -0.1585    0.0000 C   0  0  0  0  0  0  0  0  0  0  0  0
   -0.9315    0.5699    0.0000 C   0  0  0  0  0  0  0  0  0  0  0  0
    3.3399    0.8589    0.0000 C   0  0  0  0  0  0  0  0  0  0  0  0
  1  2  1  0
  2  3  2  0
  3  4  1  0
  4  5  2  0
  5  6  1  0
  6  7  1  0
  7  8  1  0
  8  9  1  0
  9 10  1  0
 10 11  1  0
 11 12  1  0
 12 13  1  0
 13 14  1  0
 14 15  1  0
 15 16  1  0
 16 17  1  0
 17 18  1  0
 18 19  1  0
 15 20  1  0
  6 21  2  0
 21  2  1  0
 19  9  1  0
 20  9  1  0
 18 11  1  0
 20 12  1  0
 17 13  1  0
 19 16  1  0
M  END
>  <ChemBL_ID>  (429) 
CHEMBL600053

>  <Ki>  (429) 
1642.0

>  <database>  (429) 
SRSLDB

$$$$

     RDKit          2D

 26 29  0  0  0  0  0  0  0  0999 V2000
   -4.8462   -2.5981    0.0000 F   0  0  0  0  0  0  0  0  0  0  0  0
   -5.5962   -1.2990    0.0000 C   0  0  0  0  0  0  0  0  0  0  0  0
   -7.0962   -1.2990    0.0000 C   0  0  0  0  0  0  0  0  0  0  0  0
   -7.8462    0.0000    0.0000 C   0  0  0  0  0  0  0  0  0  0  0  0
   -7.0962    1.2990    0.0000 C   0  0  0  0  0  0  0  0  0  0  0  0
   -5.5962    1.2990    0.0000 C   0  0  0  0  0  0  0  0  0  0  0  0
   -4.8462    2.5981    0.0000 F   0  0  0  0  0  0  0  0  0  0  0  0
   -4.8462    0.0000    0.0000 C   0  0  0  0  0  0  0  0  0  0  0  0
   -3.3462    0.0000    0.0000 C   0  0  0  0  0  0  0  0  0  0  0  0
   -2.5962   -1.2990    0.0000 C   0  0  0  0  0  0  0  0  0  0  0  0
   -1.0962   -1.2990    0.0000 C   0  0  0  0  0  0  0  0  0  0  0  0
   -0.3462   -0.0000    0.0000 C   0  0  0  0  0  0  0  0  0  0  0  0
    1.1538   -0.0000    0.0000 N   0  0  0  0  0  0  0  0  0  0  0  0
    1.9038   -1.2990    0.0000 C   0  0  0  0  0  0  0  0  0  0  0  0
    3.4038   -1.2990    0.0000 C   0  0  0  0  0  0  0  0  0  0  0  0
    4.1538    0.0000    0.0000 N   0  0  0  0  0  0  0  0  0  0  0  0
    5.6538    0.0000    0.0000 C   0  0  0  0  0  0  0  0  0  0  0  0
    6.4038   -1.2990    0.0000 C   0  0  0  0  0  0  0  0  0  0  0  0
    7.9038   -1.2990    0.0000 C   0  0  0  0  0  0  0  0  0  0  0  0
    8.6538    0.0000    0.0000 C   0  0  0  0  0  0  0  0  0  0  0  0
    7.9038    1.2990    0.0000 C   0  0  0  0  0  0  0  0  0  0  0  0
    6.4038    1.2990    0.0000 N   0  0  0  0  0  0  0  0  0  0  0  0
    3.4038    1.2990    0.0000 C   0  0  0  0  0  0  0  0  0  0  0  0
    1.9038    1.2990    0.0000 C   0  0  0  0  0  0  0  0  0  0  0  0
   -1.0962    1.2990    0.0000 C   0  0  0  0  0  0  0  0  0  0  0  0
   -2.5962    1.2990    0.0000 C   0  0  0  0  0  0  0  0  0  0  0  0
  1  2  1  0
  2  3  2  0
  3  4  1  0
  4  5  2  0
  5  6  1  0
  6  7  1  0
  6  8  2  0
  9  8  1  6
  9 10  1  0
 10 11  1  0
 11 12  1  0
 12 13  1  1
 13 14  1  0
 14 15  1  0
 15 16  1  0
 16 17  1  0
 17 18  2  0
 18 19  1  0
 19 20  2  0
 20 21  1  0
 21 22  2  0
 16 23  1  0
 23 24  1  0
 12 25  1  0
 25 26  1  0
  8  2  1  0
 26  9  1  0
 24 13  1  0
 22 17  1  0
M  END
>  <ChemBL_ID>  (430) 
CHEMBL457721

>  <Ki>  (430) 
138.0

>  <database>  (430) 
SRSLDB

$$$$

     RDKit          2D

 27 29  0  0  0  0  0  0  0  0999 V2000
   -8.8860   -0.1544    0.0000 C   0  0  0  0  0  0  0  0  0  0  0  0
   -7.7943   -1.1831    0.0000 O   0  0  0  0  0  0  0  0  0  0  0  0
   -6.3576   -0.7520    0.0000 C   0  0  0  0  0  0  0  0  0  0  0  0
   -6.0125    0.7077    0.0000 C   0  0  0  0  0  0  0  0  0  0  0  0
   -4.5758    1.1388    0.0000 C   0  0  0  0  0  0  0  0  0  0  0  0
   -3.4841    0.1100    0.0000 C   0  0  0  0  0  0  0  0  0  0  0  0
   -3.8292   -1.3497    0.0000 C   0  0  0  0  0  0  0  0  0  0  0  0
   -5.2659   -1.7808    0.0000 C   0  0  0  0  0  0  0  0  0  0  0  0
   -5.6110   -3.2405    0.0000 O   0  0  0  0  0  0  0  0  0  0  0  0
   -4.5194   -4.2693    0.0000 C   0  0  0  0  0  0  0  0  0  0  0  0
   -2.0474    0.5411    0.0000 C   0  0  0  0  0  0  0  0  0  0  0  0
   -1.7023    2.0008    0.0000 N   0  0  0  0  0  0  0  0  0  0  0  0
   -0.2656    2.4319    0.0000 C   0  0  0  0  0  0  0  0  0  0  0  0
    0.8261    1.4032    0.0000 C   0  0  0  0  0  0  0  0  0  0  0  0
    2.2628    1.8342    0.0000 C   0  0  0  0  0  0  0  0  0  0  0  0
    3.3545    0.8055    0.0000 C   0  0  0  0  0  0  0  0  0  0  0  0
    4.7912    1.2365    0.0000 C   0  0  0  0  0  0  0  0  0  0  0  0
    5.1363    2.6963    0.0000 O   0  0  0  0  0  0  0  0  0  0  0  0
    5.8829    0.2078    0.0000 C   0  0  0  0  0  0  0  0  0  0  0  0
    5.5378   -1.2520    0.0000 C   0  0  0  0  0  0  0  0  0  0  0  0
    6.6294   -2.2807    0.0000 C   0  0  0  0  0  0  0  0  0  0  0  0
    8.0662   -1.8497    0.0000 C   0  0  0  0  0  0  0  0  0  0  0  0
    9.1578   -2.8784    0.0000 F   0  0  0  0  0  0  0  0  0  0  0  0
    8.4113   -0.3899    0.0000 C   0  0  0  0  0  0  0  0  0  0  0  0
    7.3196    0.6388    0.0000 C   0  0  0  0  0  0  0  0  0  0  0  0
   -2.7940    3.0296    0.0000 C   0  0  0  0  0  0  0  0  0  0  0  0
   -4.2307    2.5985    0.0000 C   0  0  0  0  0  0  0  0  0  0  0  0
  1  2  1  0
  2  3  1  0
  3  4  2  0
  4  5  1  0
  5  6  2  0
  6  7  1  0
  7  8  2  0
  8  9  1  0
  9 10  1  0
  6 11  1  0
 11 12  1  0
 12 13  1  0
 13 14  1  0
 14 15  1  0
 15 16  1  0
 16 17  1  0
 17 18  2  0
 17 19  1  0
 19 20  2  0
 20 21  1  0
 21 22  2  0
 22 23  1  0
 22 24  1  0
 24 25  2  0
 12 26  1  0
 26 27  1  0
  8  3  1  0
 25 19  1  0
 27  5  1  0
M  END
>  <Ki>  (431) 
12.4

>  <database>  (431) 
SRSLDB

$$$$

     RDKit          2D

 23 27  0  0  0  0  0  0  0  0999 V2000
   -5.6224    1.6650    0.0000 O   0  0  0  0  0  0  0  0  0  0  0  0
   -4.5792    0.5871    0.0000 C   0  0  0  0  0  0  0  0  0  0  0  0
   -3.1242    0.9515    0.0000 C   0  0  0  0  0  0  0  0  0  0  0  0
   -2.5126   -0.4181    0.0000 C   0  0  0  0  0  0  0  0  0  0  0  0
   -3.3930   -1.6326    0.0000 C   0  0  0  0  0  0  0  0  0  0  0  0
   -2.7814   -3.0023    0.0000 C   0  0  0  0  0  0  0  0  0  0  0  0
   -1.2895   -3.1575    0.0000 C   0  0  0  0  0  0  0  0  0  0  0  0
   -0.4091   -1.9430    0.0000 C   0  0  0  0  0  0  0  0  0  0  0  0
   -1.0206   -0.5733    0.0000 C   0  0  0  0  0  0  0  0  0  0  0  0
   -3.2304    2.4478    0.0000 C   0  0  0  0  0  0  0  0  0  0  0  0
   -1.8815    1.7916    0.0000 C   0  0  0  0  0  0  0  0  0  0  0  0
   -0.3853    1.8979    0.0000 C   0  0  0  0  0  0  0  0  0  0  0  0
    0.4549    0.6552    0.0000 N   0  0  0  0  0  0  0  0  0  0  0  0
    1.9511    0.7614    0.0000 C   0  0  0  0  0  0  0  0  0  0  0  0
    2.7912   -0.4812    0.0000 C   0  0  0  0  0  0  0  0  0  0  0  0
    4.2874   -0.3750    0.0000 C   0  0  0  0  0  0  0  0  0  0  0  0
    4.9436    0.9739    0.0000 C   0  0  0  0  0  0  0  0  0  0  0  0
    4.1034    2.2166    0.0000 C   0  0  0  0  0  0  0  0  0  0  0  0
    2.0289   -0.3339    0.0000 C   0  0  0  0  0  0  0  0  0  0  0  0
    2.1351   -1.8301    0.0000 C   0  0  0  0  0  0  0  0  0  0  0  0
    3.6313   -1.7239    0.0000 C   0  0  0  0  0  0  0  0  0  0  0  0
    1.2950   -0.5874    0.0000 C   0  0  0  0  0  0  0  0  0  0  0  0
    2.6072    2.1103    0.0000 C   0  0  0  0  0  0  0  0  0  0  0  0
  1  2  1  0
  3  2  1  6
  3  4  1  0
  4  5  2  0
  5  6  1  0
  6  7  2  0
  7  8  1  0
  8  9  2  0
  3 10  1  0
 10 11  1  0
 11 12  1  6
 12 13  1  0
 13 14  1  0
 14 15  1  0
 15 16  1  0
 16 17  1  0
 17 18  1  0
 18 19  1  0
 19 20  1  0
 20 21  1  0
 20 22  1  0
 18 23  1  0
 11  3  1  0
 22 14  1  0
  9  4  1  0
 23 14  1  0
 21 16  1  0
M  END
>  <Ki>  (432) 
8.8

>  <database>  (432) 
SRSLDB

$$$$

     RDKit          2D

 29 32  0  0  0  0  0  0  0  0999 V2000
   -4.2755   -4.6728    0.0000 C   0  0  0  0  0  0  0  0  0  0  0  0
   -3.3737   -3.4741    0.0000 O   0  0  0  0  0  0  0  0  0  0  0  0
   -3.9609   -2.0938    0.0000 C   0  0  0  0  0  0  0  0  0  0  0  0
   -5.4499   -1.9122    0.0000 C   0  0  0  0  0  0  0  0  0  0  0  0
   -6.0371   -0.5319    0.0000 C   0  0  0  0  0  0  0  0  0  0  0  0
   -7.5260   -0.3503    0.0000 Br  0  0  0  0  0  0  0  0  0  0  0  0
   -5.1353    0.6667    0.0000 C   0  0  0  0  0  0  0  0  0  0  0  0
   -3.6463    0.4851    0.0000 C   0  0  0  0  0  0  0  0  0  0  0  0
   -2.7446    1.6838    0.0000 C   0  0  0  0  0  0  0  0  0  0  0  0
   -3.1843    3.1179    0.0000 N   0  0  0  0  0  0  0  0  0  0  0  0
   -1.9563    3.9793    0.0000 C   0  0  0  0  0  0  0  0  0  0  0  0
   -0.7576    3.0775    0.0000 C   0  0  0  0  0  0  0  0  0  0  0  0
    0.6765    3.5172    0.0000 C   0  0  0  0  0  0  0  0  0  0  0  0
    1.7744    2.4951    0.0000 N   0  0  0  0  0  0  0  0  0  0  0  0
    1.4381    1.0333    0.0000 C   0  0  0  0  0  0  0  0  0  0  0  0
    2.5360    0.0112    0.0000 C   0  0  0  0  0  0  0  0  0  0  0  0
    3.9701    0.4509    0.0000 C   0  0  0  0  0  0  0  0  0  0  0  0
    5.0679   -0.5713    0.0000 C   0  0  0  0  0  0  0  0  0  0  0  0
    4.7317   -2.0331    0.0000 C   0  0  0  0  0  0  0  0  0  0  0  0
    5.8295   -3.0552    0.0000 C   0  0  0  0  0  0  0  0  0  0  0  0
    7.2636   -2.6155    0.0000 C   0  0  0  0  0  0  0  0  0  0  0  0
    7.5999   -1.1537    0.0000 C   0  0  0  0  0  0  0  0  0  0  0  0
    6.5020   -0.1315    0.0000 C   0  0  0  0  0  0  0  0  0  0  0  0
    4.3063    1.9127    0.0000 C   0  0  0  0  0  0  0  0  0  0  0  0
    3.2085    2.9348    0.0000 C   0  0  0  0  0  0  0  0  0  0  0  0
   -1.2448    1.6588    0.0000 N   0  0  0  0  0  0  0  0  0  0  0  0
   -3.0591   -0.8951    0.0000 C   0  0  0  0  0  0  0  0  0  0  0  0
   -1.5702   -1.0768    0.0000 O   0  0  0  0  0  0  0  0  0  0  0  0
   -0.9830   -2.4570    0.0000 C   0  0  0  0  0  0  0  0  0  0  0  0
  1  2  1  0
  2  3  1  0
  3  4  2  0
  4  5  1  0
  5  6  1  0
  5  7  2  0
  7  8  1  0
  8  9  1  0
  9 10  2  0
 10 11  1  0
 11 12  2  0
 12 13  1  0
 13 14  1  0
 14 15  1  0
 15 16  1  0
 16 17  1  0
 17 18  1  0
 18 19  2  0
 19 20  1  0
 20 21  2  0
 21 22  1  0
 22 23  2  0
 17 24  1  0
 24 25  1  0
 12 26  1  0
  8 27  2  0
 27 28  1  0
 28 29  1  0
 27  3  1  0
 26  9  1  0
 25 14  1  0
 23 18  1  0
M  END
>  <Ki>  (433) 
412.0

>  <database>  (433) 
SRSLDB

$$$$

     RDKit          2D

 26 29  0  0  0  0  0  0  0  0999 V2000
   -9.7398    1.0946    0.0000 C   0  0  0  0  0  0  0  0  0  0  0  0
   -8.9692   -0.1923    0.0000 O   0  0  0  0  0  0  0  0  0  0  0  0
   -7.4694   -0.1685    0.0000 C   0  0  0  0  0  0  0  0  0  0  0  0
   -6.7401    1.1423    0.0000 C   0  0  0  0  0  0  0  0  0  0  0  0
   -5.2403    1.1661    0.0000 C   0  0  0  0  0  0  0  0  0  0  0  0
   -4.4698   -0.1209    0.0000 C   0  0  0  0  0  0  0  0  0  0  0  0
   -2.9700   -0.0971    0.0000 C   0  0  0  0  0  0  0  0  0  0  0  0
   -2.1995   -1.3841    0.0000 C   0  0  0  0  0  0  0  0  0  0  0  0
   -0.6997   -1.3603    0.0000 C   0  0  0  0  0  0  0  0  0  0  0  0
    0.0296   -0.0495    0.0000 C   0  0  0  0  0  0  0  0  0  0  0  0
    1.5294   -0.0257    0.0000 N   0  0  0  0  0  0  0  0  0  0  0  0
    2.3000   -1.3127    0.0000 C   0  0  0  0  0  0  0  0  0  0  0  0
    3.7998   -1.2889    0.0000 C   0  0  0  0  0  0  0  0  0  0  0  0
    4.5291    0.0219    0.0000 N   0  0  0  0  0  0  0  0  0  0  0  0
    6.0289    0.0457    0.0000 C   0  0  0  0  0  0  0  0  0  0  0  0
    6.7994   -1.2413    0.0000 C   0  0  0  0  0  0  0  0  0  0  0  0
    8.2992   -1.2174    0.0000 C   0  0  0  0  0  0  0  0  0  0  0  0
    9.0285    0.0933    0.0000 C   0  0  0  0  0  0  0  0  0  0  0  0
    8.2580    1.3803    0.0000 C   0  0  0  0  0  0  0  0  0  0  0  0
    6.7582    1.3565    0.0000 N   0  0  0  0  0  0  0  0  0  0  0  0
    3.7585    1.3089    0.0000 C   0  0  0  0  0  0  0  0  0  0  0  0
    2.2587    1.2851    0.0000 C   0  0  0  0  0  0  0  0  0  0  0  0
   -0.7409    1.2375    0.0000 C   0  0  0  0  0  0  0  0  0  0  0  0
   -2.2407    1.2137    0.0000 C   0  0  0  0  0  0  0  0  0  0  0  0
   -5.1991   -1.4317    0.0000 C   0  0  0  0  0  0  0  0  0  0  0  0
   -6.6989   -1.4555    0.0000 C   0  0  0  0  0  0  0  0  0  0  0  0
  1  2  1  0
  2  3  1  0
  3  4  2  0
  4  5  1  0
  5  6  2  0
  7  6  1  6
  7  8  1  0
  8  9  1  0
  9 10  1  0
 10 11  1  1
 11 12  1  0
 12 13  1  0
 13 14  1  0
 14 15  1  0
 15 16  2  0
 16 17  1  0
 17 18  2  0
 18 19  1  0
 19 20  2  0
 14 21  1  0
 21 22  1  0
 10 23  1  0
 23 24  1  0
  6 25  1  0
 25 26  2  0
 26  3  1  0
 24  7  1  0
 22 11  1  0
 20 15  1  0
M  END
>  <ChemBL_ID>  (434) 
CHEMBL458361

>  <Ki>  (434) 
222.0

>  <database>  (434) 
SRSLDB

$$$$

     RDKit          2D

 27 29  0  0  0  0  0  0  0  0999 V2000
   -8.5853   -2.8038    0.0000 C   0  0  0  0  0  0  0  0  0  0  0  0
   -7.1086   -2.5401    0.0000 O   0  0  0  0  0  0  0  0  0  0  0  0
   -6.5987   -1.1295    0.0000 C   0  0  0  0  0  0  0  0  0  0  0  0
   -7.5653    0.0175    0.0000 C   0  0  0  0  0  0  0  0  0  0  0  0
   -7.0554    1.4281    0.0000 C   0  0  0  0  0  0  0  0  0  0  0  0
   -5.5787    1.6918    0.0000 N   0  0  0  0  0  0  0  0  0  0  0  0
   -4.6121    0.5449    0.0000 C   0  0  0  0  0  0  0  0  0  0  0  0
   -3.1354    0.8086    0.0000 N   0  0  0  0  0  0  0  0  0  0  0  0
   -2.1687   -0.3384    0.0000 C   0  0  0  0  0  0  0  0  0  0  0  0
   -0.6921   -0.0747    0.0000 C   0  0  0  0  0  0  0  0  0  0  0  0
    0.2746   -1.2217    0.0000 C   0  0  0  0  0  0  0  0  0  0  0  0
    1.7512   -0.9580    0.0000 N   0  0  0  0  0  0  0  0  0  0  0  0
    2.7179   -2.1050    0.0000 C   0  0  0  0  0  0  0  0  0  0  0  0
    4.1946   -1.8413    0.0000 C   0  0  0  0  0  0  0  0  0  0  0  0
    4.7045   -0.4306    0.0000 N   0  0  0  0  0  0  0  0  0  0  0  0
    6.1812   -0.1669    0.0000 C   0  0  0  0  0  0  0  0  0  0  0  0
    7.1478   -1.3139    0.0000 C   0  0  0  0  0  0  0  0  0  0  0  0
    8.6245   -1.0502    0.0000 C   0  0  0  0  0  0  0  0  0  0  0  0
    9.1344    0.3605    0.0000 C   0  0  0  0  0  0  0  0  0  0  0  0
    8.1678    1.5074    0.0000 C   0  0  0  0  0  0  0  0  0  0  0  0
    6.6911    1.2437    0.0000 C   0  0  0  0  0  0  0  0  0  0  0  0
    3.7378    0.7164    0.0000 C   0  0  0  0  0  0  0  0  0  0  0  0
    2.2612    0.4527    0.0000 C   0  0  0  0  0  0  0  0  0  0  0  0
   -2.6255    2.2192    0.0000 C   0  0  0  0  0  0  0  0  0  0  0  0
   -1.1488    2.4829    0.0000 C   0  0  0  0  0  0  0  0  0  0  0  0
   -3.5921    3.3662    0.0000 O   0  0  0  0  0  0  0  0  0  0  0  0
   -5.1220   -0.8658    0.0000 C   0  0  0  0  0  0  0  0  0  0  0  0
  1  2  1  0
  2  3  1  0
  3  4  2  0
  4  5  1  0
  5  6  2  0
  6  7  1  0
  7  8  1  0
  8  9  1  0
  9 10  1  0
 10 11  1  0
 11 12  1  0
 12 13  1  0
 13 14  1  0
 14 15  1  0
 15 16  1  0
 16 17  1  0
 17 18  1  0
 18 19  1  0
 19 20  1  0
 20 21  1  0
 15 22  1  0
 22 23  1  0
  8 24  1  0
 24 25  1  0
 24 26  2  0
  7 27  2  0
 27  3  1  0
 23 12  1  0
 21 16  1  0
M  END
>  <Ki>  (435) 
309.0

>  <database>  (435) 
SRSLDB

$$$$

     RDKit          2D

 29 33  0  0  0  0  0  0  0  0999 V2000
    3.6936   -3.9797    0.0000 O   0  0  0  0  0  0  0  0  0  0  0  0
    2.8268   -2.7555    0.0000 C   0  0  0  0  0  0  0  0  0  0  0  0
    1.3332   -2.8940    0.0000 C   0  0  0  0  0  0  0  0  0  0  0  0
    0.4665   -1.6697    0.0000 C   0  0  0  0  0  0  0  0  0  0  0  0
    1.2802   -1.5436    0.0000 C   0  0  0  0  0  0  0  0  0  0  0  0
    2.6307   -1.4184    0.0000 N   0  0  0  0  0  0  0  0  0  0  0  0
    3.2138    1.1942    0.0000 C   0  0  0  0  0  0  0  0  0  0  0  0
    4.7074    1.3327    0.0000 C   0  0  0  0  0  0  0  0  0  0  0  0
    5.5741    0.1085    0.0000 C   0  0  0  0  0  0  0  0  0  0  0  0
    7.0677    0.2470    0.0000 C   0  0  0  0  0  0  0  0  0  0  0  0
    7.6946    1.6097    0.0000 C   0  0  0  0  0  0  0  0  0  0  0  0
    6.8278    2.8340    0.0000 C   0  0  0  0  0  0  0  0  0  0  0  0
    5.3343    2.6955    0.0000 C   0  0  0  0  0  0  0  0  0  0  0  0
    3.4537   -1.3927    0.0000 C   0  0  0  0  0  0  0  0  0  0  0  0
    2.5870   -0.1685    0.0000 C   0  0  0  0  0  0  0  0  0  0  0  0
    1.0934   -0.3070    0.0000 N   0  0  0  0  0  0  0  0  0  0  0  0
    0.2266    0.9173    0.0000 C   0  0  0  0  0  0  0  0  0  0  0  0
   -1.2670    0.7788    0.0000 C   0  0  0  0  0  0  0  0  0  0  0  0
   -2.1337    2.0030    0.0000 C   0  0  0  0  0  0  0  0  0  0  0  0
   -3.6273    1.8645    0.0000 C   0  0  0  0  0  0  0  0  0  0  0  0
   -4.2542    0.5018    0.0000 C   0  0  0  0  0  0  0  0  0  0  0  0
   -5.7477    0.3633    0.0000 C   0  0  0  0  0  0  0  0  0  0  0  0
   -6.6145    1.5875    0.0000 C   0  0  0  0  0  0  0  0  0  0  0  0
   -8.1081    1.4490    0.0000 C   0  0  0  0  0  0  0  0  0  0  0  0
   -8.7349    0.0863    0.0000 C   0  0  0  0  0  0  0  0  0  0  0  0
   -7.8682   -1.1380    0.0000 C   0  0  0  0  0  0  0  0  0  0  0  0
   -6.3746   -0.9995    0.0000 C   0  0  0  0  0  0  0  0  0  0  0  0
   -3.3874   -0.7225    0.0000 C   0  0  0  0  0  0  0  0  0  0  0  0
   -1.8938   -0.5840    0.0000 C   0  0  0  0  0  0  0  0  0  0  0  0
  2  1  1  6
  2  3  1  0
  4  3  1  1
  4  5  1  0
  5  6  1  0
  6  7  1  0
  7  8  1  0
  8  9  1  0
  9 10  1  0
 10 11  1  0
 11 12  1  0
 12 13  1  0
  6 14  1  0
 14 15  1  1
 15 16  1  0
 16 17  1  0
 17 18  1  0
 18 19  2  0
 19 20  1  0
 20 21  2  0
 21 22  1  0
 22 23  2  0
 23 24  1  0
 24 25  2  0
 25 26  1  0
 26 27  2  0
 21 28  1  0
 28 29  2  0
 14  2  1  0
 29 18  1  0
 16  4  1  0
 27 22  1  0
 13  8  1  0
M  END
>  <Compound_Key>  (436) 
ent-43

>  <Ki>  (436) 
593.0

>  <database>  (436) 
NewLiterature

>  <Document_ChEMBL_ID>  (436) 
10.1021/acs.jmedchem.0c02265

$$$$

     RDKit          2D

 26 29  0  0  0  0  0  0  0  0999 V2000
    3.0225   -3.7885    0.0000 O   0  0  0  0  0  0  0  0  0  0  0  0
    1.6294   -3.2325    0.0000 C   0  0  0  0  0  0  0  0  0  0  0  0
    0.4512   -4.1610    0.0000 C   0  0  0  0  0  0  0  0  0  0  0  0
   -0.9419   -3.6049    0.0000 C   0  0  0  0  0  0  0  0  0  0  0  0
   -1.1569   -2.1204    0.0000 C   0  0  0  0  0  0  0  0  0  0  0  0
   -2.5500   -1.5644    0.0000 O   0  0  0  0  0  0  0  0  0  0  0  0
   -2.7651   -0.0799    0.0000 C   0  0  0  0  0  0  0  0  0  0  0  0
   -4.1582    0.4761    0.0000 C   0  0  0  0  0  0  0  0  0  0  0  0
   -4.3732    1.9607    0.0000 C   0  0  0  0  0  0  0  0  0  0  0  0
   -5.7664    2.5167    0.0000 C   0  0  0  0  0  0  0  0  0  0  0  0
   -6.9445    1.5882    0.0000 C   0  0  0  0  0  0  0  0  0  0  0  0
   -8.3376    2.1443    0.0000 F   0  0  0  0  0  0  0  0  0  0  0  0
   -6.7294    0.1037    0.0000 C   0  0  0  0  0  0  0  0  0  0  0  0
   -5.3363   -0.4523    0.0000 C   0  0  0  0  0  0  0  0  0  0  0  0
    0.0212   -1.1920    0.0000 C   0  0  0  0  0  0  0  0  0  0  0  0
    1.4143   -1.7480    0.0000 C   0  0  0  0  0  0  0  0  0  0  0  0
    2.5924   -0.8195    0.0000 N   0  0  0  0  0  0  0  0  0  0  0  0
    3.9856   -1.3756    0.0000 C   0  0  0  0  0  0  0  0  0  0  0  0
    5.1637   -0.4471    0.0000 C   0  0  0  0  0  0  0  0  0  0  0  0
    4.9487    1.0374    0.0000 C   0  0  0  0  0  0  0  0  0  0  0  0
    6.1268    1.9659    0.0000 C   0  0  0  0  0  0  0  0  0  0  0  0
    5.9117    3.4504    0.0000 C   0  0  0  0  0  0  0  0  0  0  0  0
    4.5186    4.0064    0.0000 C   0  0  0  0  0  0  0  0  0  0  0  0
    3.3405    3.0780    0.0000 C   0  0  0  0  0  0  0  0  0  0  0  0
    3.5555    1.5934    0.0000 C   0  0  0  0  0  0  0  0  0  0  0  0
    2.3774    0.6650    0.0000 C   0  0  0  0  0  0  0  0  0  0  0  0
  2  1  1  6
  2  3  1  0
  3  4  1  0
  4  5  1  0
  5  6  1  6
  6  7  1  0
  7  8  1  0
  8  9  2  0
  9 10  1  0
 10 11  2  0
 11 12  1  0
 11 13  1  0
 13 14  2  0
  5 15  1  0
 15 16  1  0
 16 17  1  1
 17 18  1  0
 18 19  1  0
 19 20  1  0
 20 21  2  0
 21 22  1  0
 22 23  2  0
 23 24  1  0
 24 25  2  0
 25 26  1  0
 16  2  1  0
 26 17  1  0
 14  8  1  0
 25 20  1  0
M  END
>  <Ki>  (437) 
45.9

>  <database>  (437) 
SRSLDB

$$$$

     RDKit          2D

 28 31  0  0  0  0  0  0  0  0999 V2000
   -9.8146   -0.7315    0.0000 C   0  0  0  0  0  0  0  0  0  0  0  0
   -8.3848   -1.1851    0.0000 O   0  0  0  0  0  0  0  0  0  0  0  0
   -7.2771   -0.1737    0.0000 C   0  0  0  0  0  0  0  0  0  0  0  0
   -7.5992    1.2913    0.0000 C   0  0  0  0  0  0  0  0  0  0  0  0
   -6.4915    2.3027    0.0000 C   0  0  0  0  0  0  0  0  0  0  0  0
   -5.0617    1.8492    0.0000 C   0  0  0  0  0  0  0  0  0  0  0  0
   -4.7397    0.3841    0.0000 C   0  0  0  0  0  0  0  0  0  0  0  0
   -5.8474   -0.6273    0.0000 C   0  0  0  0  0  0  0  0  0  0  0  0
   -5.5253   -2.0923    0.0000 C   0  0  0  0  0  0  0  0  0  0  0  0
   -4.0955   -2.5459    0.0000 C   0  0  0  0  0  0  0  0  0  0  0  0
   -2.9878   -1.5345    0.0000 C   0  0  0  0  0  0  0  0  0  0  0  0
   -3.3099   -0.0694    0.0000 C   0  0  0  0  0  0  0  0  0  0  0  0
   -2.2022    0.9420    0.0000 C   0  0  0  0  0  0  0  0  0  0  0  0
   -0.7724    0.4884    0.0000 C   0  0  0  0  0  0  0  0  0  0  0  0
    0.3353    1.4998    0.0000 C   0  0  0  0  0  0  0  0  0  0  0  0
    1.7651    1.0462    0.0000 N   0  0  0  0  0  0  0  0  0  0  0  0
    2.0872   -0.4188    0.0000 C   0  0  0  0  0  0  0  0  0  0  0  0
    3.5169   -0.8724    0.0000 C   0  0  0  0  0  0  0  0  0  0  0  0
    4.6246    0.1391    0.0000 N   0  0  0  0  0  0  0  0  0  0  0  0
    6.0544   -0.3145    0.0000 C   0  0  0  0  0  0  0  0  0  0  0  0
    6.3765   -1.7795    0.0000 C   0  0  0  0  0  0  0  0  0  0  0  0
    7.8063   -2.2331    0.0000 C   0  0  0  0  0  0  0  0  0  0  0  0
    8.9140   -1.2217    0.0000 C   0  0  0  0  0  0  0  0  0  0  0  0
    8.5919    0.2433    0.0000 C   0  0  0  0  0  0  0  0  0  0  0  0
    9.6996    1.2548    0.0000 Cl  0  0  0  0  0  0  0  0  0  0  0  0
    7.1621    0.6969    0.0000 C   0  0  0  0  0  0  0  0  0  0  0  0
    4.3026    1.6041    0.0000 C   0  0  0  0  0  0  0  0  0  0  0  0
    2.8728    2.0577    0.0000 C   0  0  0  0  0  0  0  0  0  0  0  0
  1  2  1  0
  2  3  1  0
  3  4  2  0
  4  5  1  0
  5  6  2  0
  6  7  1  0
  7  8  2  0
  8  9  1  0
  9 10  1  0
 10 11  1  0
 11 12  1  0
 12 13  1  0
 13 14  1  0
 14 15  1  0
 15 16  1  0
 16 17  1  0
 17 18  1  0
 18 19  1  0
 19 20  1  0
 20 21  2  0
 21 22  1  0
 22 23  2  0
 23 24  1  0
 24 25  1  0
 24 26  2  0
 19 27  1  0
 27 28  1  0
  8  3  1  0
 28 16  1  0
 12  7  1  0
 26 20  1  0
M  END
>  <Ki>  (438) 
59.3

>  <database>  (438) 
SRSLDB

$$$$

     RDKit          2D

 30 33  0  0  0  0  0  0  0  0999 V2000
   -5.2056   -2.7553    0.0000 O   0  0  0  0  0  0  0  0  0  0  0  0
   -4.4300   -1.4714    0.0000 C   0  0  0  0  0  0  0  0  0  0  0  0
   -5.1541   -0.1577    0.0000 C   0  0  0  0  0  0  0  0  0  0  0  0
   -4.3786    1.1262    0.0000 C   0  0  0  0  0  0  0  0  0  0  0  0
   -5.1027    2.4398    0.0000 C   0  0  0  0  0  0  0  0  0  0  0  0
   -6.6024    2.4695    0.0000 C   0  0  0  0  0  0  0  0  0  0  0  0
   -7.3265    3.7832    0.0000 F   0  0  0  0  0  0  0  0  0  0  0  0
   -7.3780    1.1856    0.0000 C   0  0  0  0  0  0  0  0  0  0  0  0
   -6.6538   -0.1280    0.0000 C   0  0  0  0  0  0  0  0  0  0  0  0
   -2.9303   -1.5011    0.0000 C   0  0  0  0  0  0  0  0  0  0  0  0
   -2.2062   -2.8147    0.0000 C   0  0  0  0  0  0  0  0  0  0  0  0
   -0.7065   -2.8444    0.0000 C   0  0  0  0  0  0  0  0  0  0  0  0
    0.0691   -1.5605    0.0000 N   0  0  0  0  0  0  0  0  0  0  0  0
    1.5688   -1.5902    0.0000 C   0  0  0  0  0  0  0  0  0  0  0  0
    2.3444   -0.3063    0.0000 C   0  0  0  0  0  0  0  0  0  0  0  0
    3.8441   -0.3360    0.0000 C   0  0  0  0  0  0  0  0  0  0  0  0
    4.5682   -1.6497    0.0000 C   0  0  0  0  0  0  0  0  0  0  0  0
    6.0679   -1.6794    0.0000 C   0  0  0  0  0  0  0  0  0  0  0  0
    6.8435   -0.3954    0.0000 C   0  0  0  0  0  0  0  0  0  0  0  0
    6.1194    0.9182    0.0000 C   0  0  0  0  0  0  0  0  0  0  0  0
    4.6197    0.9479    0.0000 C   0  0  0  0  0  0  0  0  0  0  0  0
    3.8956    2.2616    0.0000 O   0  0  0  0  0  0  0  0  0  0  0  0
    4.6711    3.5455    0.0000 C   0  0  0  0  0  0  0  0  0  0  0  0
    3.9470    4.8591    0.0000 C   0  0  0  0  0  0  0  0  0  0  0  0
    4.7226    6.1430    0.0000 F   0  0  0  0  0  0  0  0  0  0  0  0
    3.7926   -2.9336    0.0000 C   0  0  0  0  0  0  0  0  0  0  0  0
    2.2929   -2.9039    0.0000 C   0  0  0  0  0  0  0  0  0  0  0  0
    1.5173   -4.1878    0.0000 O   0  0  0  0  0  0  0  0  0  0  0  0
   -0.6550   -0.2469    0.0000 C   0  0  0  0  0  0  0  0  0  0  0  0
   -2.1547   -0.2172    0.0000 C   0  0  0  0  0  0  0  0  0  0  0  0
  1  2  2  0
  2  3  1  0
  3  4  2  0
  4  5  1  0
  5  6  2  0
  6  7  1  0
  6  8  1  0
  8  9  2  0
  2 10  1  0
 10 11  1  0
 11 12  1  0
 12 13  1  0
 14 13  1  1
 14 15  1  0
 15 16  1  0
 16 17  2  0
 17 18  1  0
 18 19  2  0
 19 20  1  0
 20 21  2  0
 21 22  1  0
 22 23  1  0
 23 24  1  0
 24 25  1  0
 17 26  1  0
 26 27  1  0
 27 28  1  6
 13 29  1  0
 29 30  1  0
  9  3  1  0
 30 10  1  0
 27 14  1  0
 21 16  1  0
M  END
>  <Ki>  (439) 
7800.0

>  <database>  (439) 
SRSLDB

$$$$

     RDKit          2D

 24 27  0  0  0  0  0  0  0  0999 V2000
    3.7791   -3.6000    0.0000 O   0  0  0  0  0  0  0  0  0  0  0  0
    4.2018   -2.1608    0.0000 C   0  0  0  0  0  0  0  0  0  0  0  0
    5.6146   -1.6568    0.0000 O   0  0  0  0  0  0  0  0  0  0  0  0
    5.5718   -0.1575    0.0000 C   0  0  0  0  0  0  0  0  0  0  0  0
    6.6575    0.8776    0.0000 C   0  0  0  0  0  0  0  0  0  0  0  0
    6.3040    2.3353    0.0000 C   0  0  0  0  0  0  0  0  0  0  0  0
    4.8647    2.7580    0.0000 C   0  0  0  0  0  0  0  0  0  0  0  0
    3.7791    1.7230    0.0000 C   0  0  0  0  0  0  0  0  0  0  0  0
    4.1326    0.2652    0.0000 C   0  0  0  0  0  0  0  0  0  0  0  0
    3.2859   -0.9729    0.0000 N   0  0  0  0  0  0  0  0  0  0  0  0
    1.7865   -1.0156    0.0000 C   0  0  0  0  0  0  0  0  0  0  0  0
    0.9998    0.2615    0.0000 C   0  0  0  0  0  0  0  0  0  0  0  0
   -0.4996    0.2188    0.0000 N   0  0  0  0  0  0  0  0  0  0  0  0
   -1.2863    1.4959    0.0000 C   0  0  0  0  0  0  0  0  0  0  0  0
   -2.7857    1.4532    0.0000 C   0  0  0  0  0  0  0  0  0  0  0  0
   -3.4984    0.1333    0.0000 N   0  0  0  0  0  0  0  0  0  0  0  0
   -4.9978    0.0906    0.0000 C   0  0  0  0  0  0  0  0  0  0  0  0
   -5.7845    1.3677    0.0000 C   0  0  0  0  0  0  0  0  0  0  0  0
   -7.2839    1.3250    0.0000 C   0  0  0  0  0  0  0  0  0  0  0  0
   -7.9966    0.0051    0.0000 C   0  0  0  0  0  0  0  0  0  0  0  0
   -7.2099   -1.2721    0.0000 C   0  0  0  0  0  0  0  0  0  0  0  0
   -5.7105   -1.2293    0.0000 C   0  0  0  0  0  0  0  0  0  0  0  0
   -2.7117   -1.1439    0.0000 C   0  0  0  0  0  0  0  0  0  0  0  0
   -1.2123   -1.1011    0.0000 C   0  0  0  0  0  0  0  0  0  0  0  0
  1  2  2  0
  2  3  1  0
  3  4  1  0
  4  5  2  0
  5  6  1  0
  6  7  2  0
  7  8  1  0
  8  9  2  0
  9 10  1  0
 10 11  1  0
 11 12  1  0
 12 13  1  0
 13 14  1  0
 14 15  1  0
 15 16  1  0
 16 17  1  0
 17 18  1  0
 18 19  1  0
 19 20  1  0
 20 21  1  0
 21 22  1  0
 16 23  1  0
 23 24  1  0
 10  2  1  0
 24 13  1  0
  9  4  1  0
 22 17  1  0
M  END
>  <ChemBL_ID>  (440) 
CHEMBL269876

>  <Ki>  (440) 
5.43

>  <database>  (440) 
SRSLDB

$$$$

     RDKit          2D

 26 29  0  0  0  0  0  0  0  0999 V2000
   -7.6408   -1.5647    0.0000 C   0  0  0  0  0  0  0  0  0  0  0  0
   -6.1461   -1.6901    0.0000 O   0  0  0  0  0  0  0  0  0  0  0  0
   -5.2901   -0.4584    0.0000 C   0  0  0  0  0  0  0  0  0  0  0  0
   -5.9288    0.8988    0.0000 C   0  0  0  0  0  0  0  0  0  0  0  0
   -5.0728    2.1306    0.0000 C   0  0  0  0  0  0  0  0  0  0  0  0
   -5.7116    3.4878    0.0000 Br  0  0  0  0  0  0  0  0  0  0  0  0
   -3.5781    2.0052    0.0000 C   0  0  0  0  0  0  0  0  0  0  0  0
   -2.9393    0.6480    0.0000 C   0  0  0  0  0  0  0  0  0  0  0  0
   -1.4446    0.5226    0.0000 C   0  0  0  0  0  0  0  0  0  0  0  0
   -0.4645    1.6581    0.0000 C   0  0  0  0  0  0  0  0  0  0  0  0
    0.9183    1.0769    0.0000 C   0  0  0  0  0  0  0  0  0  0  0  0
    0.7929   -0.4178    0.0000 C   0  0  0  0  0  0  0  0  0  0  0  0
    1.9284   -1.3979    0.0000 C   0  0  0  0  0  0  0  0  0  0  0  0
    3.3450   -0.9045    0.0000 N   0  0  0  0  0  0  0  0  0  0  0  0
    4.5767   -1.7605    0.0000 C   0  0  0  0  0  0  0  0  0  0  0  0
    5.7715   -0.8535    0.0000 C   0  0  0  0  0  0  0  0  0  0  0  0
    7.2449   -1.1345    0.0000 C   0  0  0  0  0  0  0  0  0  0  0  0
    8.2250    0.0011    0.0000 C   0  0  0  0  0  0  0  0  0  0  0  0
    7.7316    1.4176    0.0000 C   0  0  0  0  0  0  0  0  0  0  0  0
    6.2581    1.6986    0.0000 C   0  0  0  0  0  0  0  0  0  0  0  0
    5.2781    0.5630    0.0000 C   0  0  0  0  0  0  0  0  0  0  0  0
    3.7784    0.5315    0.0000 C   0  0  0  0  0  0  0  0  0  0  0  0
   -0.6675   -0.7604    0.0000 N   0  0  0  0  0  0  0  0  0  0  0  0
   -3.7953   -0.5838    0.0000 C   0  0  0  0  0  0  0  0  0  0  0  0
   -3.1566   -1.9410    0.0000 O   0  0  0  0  0  0  0  0  0  0  0  0
   -4.0126   -3.1728    0.0000 C   0  0  0  0  0  0  0  0  0  0  0  0
  1  2  1  0
  2  3  1  0
  3  4  2  0
  4  5  1  0
  5  6  1  0
  5  7  2  0
  7  8  1  0
  8  9  1  0
  9 10  2  0
 10 11  1  0
 11 12  2  0
 12 13  1  0
 13 14  1  0
 14 15  1  0
 15 16  1  0
 16 17  2  0
 17 18  1  0
 18 19  2  0
 19 20  1  0
 20 21  2  0
 21 22  1  0
 12 23  1  0
  8 24  2  0
 24 25  1  0
 25 26  1  0
 24  3  1  0
 23  9  1  0
 22 14  1  0
 21 16  1  0
M  END
>  <Ki>  (441) 
307.0

>  <database>  (441) 
SRSLDB

$$$$

     RDKit          2D

 33 36  0  0  0  0  0  0  0  0999 V2000
    5.1334   -4.4333    0.0000 C   0  0  0  0  0  0  0  0  0  0  0  0
    5.6007   -3.0079    0.0000 O   0  0  0  0  0  0  0  0  0  0  0  0
    4.5999   -1.8906    0.0000 C   0  0  0  0  0  0  0  0  0  0  0  0
    3.1319   -2.1986    0.0000 C   0  0  0  0  0  0  0  0  0  0  0  0
    2.1311   -1.0813    0.0000 C   0  0  0  0  0  0  0  0  0  0  0  0
    0.6631   -1.3893    0.0000 C   0  0  0  0  0  0  0  0  0  0  0  0
   -0.3377   -0.2720    0.0000 C   0  0  0  0  0  0  0  0  0  0  0  0
   -1.8057   -0.5800    0.0000 N   0  0  0  0  0  0  0  0  0  0  0  0
   -2.8065    0.5373    0.0000 C   0  0  0  0  0  0  0  0  0  0  0  0
   -4.2746    0.2293    0.0000 C   0  0  0  0  0  0  0  0  0  0  0  0
   -4.7418   -1.1960    0.0000 N   0  0  0  0  0  0  0  0  0  0  0  0
   -6.2098   -1.5041    0.0000 C   0  0  0  0  0  0  0  0  0  0  0  0
   -7.2106   -0.3867    0.0000 C   0  0  0  0  0  0  0  0  0  0  0  0
   -8.6786   -0.6948    0.0000 C   0  0  0  0  0  0  0  0  0  0  0  0
   -9.6794    0.4226    0.0000 C   0  0  0  0  0  0  0  0  0  0  0  0
   -9.2122    1.8479    0.0000 C   0  0  0  0  0  0  0  0  0  0  0  0
  -10.2129    2.9653    0.0000 C   0  0  0  0  0  0  0  0  0  0  0  0
  -11.6810    2.6573    0.0000 C   0  0  0  0  0  0  0  0  0  0  0  0
  -12.1482    1.2319    0.0000 C   0  0  0  0  0  0  0  0  0  0  0  0
  -11.1475    0.1146    0.0000 C   0  0  0  0  0  0  0  0  0  0  0  0
   -3.7410   -2.3134    0.0000 C   0  0  0  0  0  0  0  0  0  0  0  0
   -2.2730   -2.0054    0.0000 C   0  0  0  0  0  0  0  0  0  0  0  0
    2.5984    0.3441    0.0000 C   0  0  0  0  0  0  0  0  0  0  0  0
    4.0664    0.6521    0.0000 C   0  0  0  0  0  0  0  0  0  0  0  0
    5.0672   -0.4652    0.0000 C   0  0  0  0  0  0  0  0  0  0  0  0
    6.5352   -0.1572    0.0000 O   0  0  0  0  0  0  0  0  0  0  0  0
    7.0025    1.2682    0.0000 C   0  0  0  0  0  0  0  0  0  0  0  0
    8.4705    1.5762    0.0000 C   0  0  0  0  0  0  0  0  0  0  0  0
    9.4713    0.4588    0.0000 C   0  0  0  0  0  0  0  0  0  0  0  0
   10.9393    0.7669    0.0000 C   0  0  0  0  0  0  0  0  0  0  0  0
   11.4065    2.1922    0.0000 C   0  0  0  0  0  0  0  0  0  0  0  0
   10.4058    3.3096    0.0000 C   0  0  0  0  0  0  0  0  0  0  0  0
    8.9377    3.0016    0.0000 C   0  0  0  0  0  0  0  0  0  0  0  0
  1  2  1  0
  2  3  1  0
  3  4  2  0
  4  5  1  0
  5  6  1  0
  6  7  1  0
  7  8  1  0
  8  9  1  0
  9 10  1  0
 10 11  1  0
 11 12  1  0
 12 13  1  0
 13 14  1  0
 14 15  1  0
 15 16  2  0
 16 17  1  0
 17 18  2  0
 18 19  1  0
 19 20  2  0
 11 21  1  0
 21 22  1  0
  5 23  2  0
 23 24  1  0
 24 25  2  0
 25 26  1  0
 26 27  1  0
 27 28  1  0
 28 29  2  0
 29 30  1  0
 30 31  2  0
 31 32  1  0
 32 33  2  0
 25  3  1  0
 33 28  1  0
 22  8  1  0
 20 15  1  0
M  END
>  <Ki>  (442) 
16.43

>  <database>  (442) 
SRSLDB

$$$$

     RDKit          2D

 31 34  0  0  0  0  0  0  0  0999 V2000
   -5.5559   -2.2819    0.0000 C   0  0  0  0  0  0  0  0  0  0  0  0
   -4.1467   -1.7679    0.0000 O   0  0  0  0  0  0  0  0  0  0  0  0
   -3.8873   -0.2905    0.0000 C   0  0  0  0  0  0  0  0  0  0  0  0
   -5.0371    0.6729    0.0000 C   0  0  0  0  0  0  0  0  0  0  0  0
   -4.7777    2.1503    0.0000 C   0  0  0  0  0  0  0  0  0  0  0  0
   -3.3685    2.6643    0.0000 C   0  0  0  0  0  0  0  0  0  0  0  0
   -3.1091    4.1417    0.0000 C   0  0  0  0  0  0  0  0  0  0  0  0
   -2.2187    1.7010    0.0000 C   0  0  0  0  0  0  0  0  0  0  0  0
   -2.4781    0.2236    0.0000 C   0  0  0  0  0  0  0  0  0  0  0  0
   -1.3284   -0.7398    0.0000 N   0  0  0  0  0  0  0  0  0  0  0  0
    0.0808   -0.2257    0.0000 C   0  0  0  0  0  0  0  0  0  0  0  0
    0.3402    1.2517    0.0000 O   0  0  0  0  0  0  0  0  0  0  0  0
    1.2306   -1.1890    0.0000 O   0  0  0  0  0  0  0  0  0  0  0  0
    2.6397   -0.6750    0.0000 C   0  0  0  0  0  0  0  0  0  0  0  0
    3.7895   -1.6383    0.0000 C   0  0  0  0  0  0  0  0  0  0  0  0
    5.1987   -1.1243    0.0000 C   0  0  0  0  0  0  0  0  0  0  0  0
    6.6078   -0.6102    0.0000 C   0  0  0  0  0  0  0  0  0  0  0  0
    6.8672    0.8672    0.0000 C   0  0  0  0  0  0  0  0  0  0  0  0
    5.7175    1.8305    0.0000 C   0  0  0  0  0  0  0  0  0  0  0  0
    4.3083    1.3165    0.0000 C   0  0  0  0  0  0  0  0  0  0  0  0
    2.8991    0.8024    0.0000 C   0  0  0  0  0  0  0  0  0  0  0  0
    4.0489   -0.1609    0.0000 N   0  0  0  0  0  0  0  0  0  0  0  0
    2.6397   -0.6750    0.0000 C   0  0  0  0  0  0  0  0  0  0  0  0
    1.4900    0.2884    0.0000 C   0  0  0  0  0  0  0  0  0  0  0  0
    0.0808   -0.2257    0.0000 C   0  0  0  0  0  0  0  0  0  0  0  0
   -1.0690    0.7376    0.0000 C   0  0  0  0  0  0  0  0  0  0  0  0
   -2.4781    0.2236    0.0000 C   0  0  0  0  0  0  0  0  0  0  0  0
   -2.7375   -1.2538    0.0000 C   0  0  0  0  0  0  0  0  0  0  0  0
   -3.9804   -2.0936    0.0000 I   0  0  0  0  0  0  0  0  0  0  0  0
   -1.5878   -2.2172    0.0000 C   0  0  0  0  0  0  0  0  0  0  0  0
   -0.1786   -1.7031    0.0000 C   0  0  0  0  0  0  0  0  0  0  0  0
  1  2  1  0
  2  3  1  0
  3  4  2  0
  4  5  1  0
  5  6  2  0
  6  7  1  0
  6  8  1  0
  8  9  2  0
  9 10  1  0
 10 11  1  0
 11 12  2  0
 11 13  1  0
 13 14  1  0
 14 15  1  0
 15 16  1  0
 16 17  1  0
 17 18  1  0
 18 19  1  0
 19 20  1  0
 20 21  1  0
 20 22  1  0
 22 23  1  0
 23 24  1  0
 24 25  1  0
 25 26  2  0
 26 27  1  0
 27 28  2  0
 28 29  1  0
 28 30  1  0
 30 31  2  0
  9  3  1  0
 21 14  1  0
 31 25  1  0
 22 16  1  0
M  END
>  <Ki>  (443) 
141.0

>  <database>  (443) 
SRSLDB

$$$$

     RDKit          2D

 39 43  0  0  0  0  0  0  0  0999 V2000
   -9.8037   -2.1287    0.0000 C   0  0  0  0  0  0  0  0  0  0  0  0
   -8.4241   -2.7175    0.0000 O   0  0  0  0  0  0  0  0  0  0  0  0
   -7.2244   -1.8171    0.0000 C   0  0  0  0  0  0  0  0  0  0  0  0
   -7.4043   -0.3280    0.0000 C   0  0  0  0  0  0  0  0  0  0  0  0
   -6.2046    0.5724    0.0000 C   0  0  0  0  0  0  0  0  0  0  0  0
   -4.8250   -0.0164    0.0000 C   0  0  0  0  0  0  0  0  0  0  0  0
   -4.6451   -1.5056    0.0000 C   0  0  0  0  0  0  0  0  0  0  0  0
   -5.8448   -2.4059    0.0000 C   0  0  0  0  0  0  0  0  0  0  0  0
   -5.6649   -3.8951    0.0000 O   0  0  0  0  0  0  0  0  0  0  0  0
   -4.2853   -4.4839    0.0000 C   0  0  0  0  0  0  0  0  0  0  0  0
   -3.6252    0.8840    0.0000 C   0  0  0  0  0  0  0  0  0  0  0  0
   -3.8051    2.3732    0.0000 N   0  0  0  0  0  0  0  0  0  0  0  0
   -2.6054    3.2735    0.0000 C   0  0  0  0  0  0  0  0  0  0  0  0
   -1.2258    2.6847    0.0000 C   0  0  0  0  0  0  0  0  0  0  0  0
   -0.0261    3.5851    0.0000 N   0  0  0  0  0  0  0  0  0  0  0  0
    1.3535    2.9963    0.0000 C   0  0  0  0  0  0  0  0  0  0  0  0
    1.5334    1.5071    0.0000 C   0  0  0  0  0  0  0  0  0  0  0  0
    2.9130    0.9183    0.0000 C   0  0  0  0  0  0  0  0  0  0  0  0
    3.0929   -0.5709    0.0000 N   0  0  0  0  0  0  0  0  0  0  0  0
    1.9939   -1.5917    0.0000 N   0  0  0  0  0  0  0  0  0  0  0  0
    2.6251   -2.9524    0.0000 C   0  0  0  0  0  0  0  0  0  0  0  0
    1.8953   -4.2629    0.0000 C   0  0  0  0  0  0  0  0  0  0  0  0
    4.1143   -2.7726    0.0000 C   0  0  0  0  0  0  0  0  0  0  0  0
    4.4034   -1.3007    0.0000 C   0  0  0  0  0  0  0  0  0  0  0  0
    5.8226   -0.8151    0.0000 C   0  0  0  0  0  0  0  0  0  0  0  0
    6.9528   -1.8014    0.0000 C   0  0  0  0  0  0  0  0  0  0  0  0
    8.3521   -2.3417    0.0000 C   0  0  0  0  0  0  0  0  0  0  0  0
    7.7279   -0.5172    0.0000 C   0  0  0  0  0  0  0  0  0  0  0  0
    6.6637   -3.2733    0.0000 C   0  0  0  0  0  0  0  0  0  0  0  0
    5.2444   -3.7589    0.0000 C   0  0  0  0  0  0  0  0  0  0  0  0
    4.9553   -5.2307    0.0000 O   0  0  0  0  0  0  0  0  0  0  0  0
    4.1128    1.8187    0.0000 C   0  0  0  0  0  0  0  0  0  0  0  0
    3.9329    3.3078    0.0000 C   0  0  0  0  0  0  0  0  0  0  0  0
    2.5533    3.8966    0.0000 C   0  0  0  0  0  0  0  0  0  0  0  0
    2.3734    5.3858    0.0000 C   0  0  0  0  0  0  0  0  0  0  0  0
    3.5731    6.2862    0.0000 N   0  0  0  0  0  0  0  0  0  0  0  0
    0.9938    5.9746    0.0000 O   0  0  0  0  0  0  0  0  0  0  0  0
   -5.1847    2.9620    0.0000 C   0  0  0  0  0  0  0  0  0  0  0  0
   -6.3844    2.0616    0.0000 C   0  0  0  0  0  0  0  0  0  0  0  0
  1  2  1  0
  2  3  1  0
  3  4  2  0
  4  5  1  0
  5  6  2  0
  6  7  1  0
  7  8  2  0
  8  9  1  0
  9 10  1  0
  6 11  1  0
 11 12  1  0
 12 13  1  0
 13 14  1  0
 14 15  1  0
 15 16  1  0
 16 17  2  0
 17 18  1  0
 18 19  1  0
 19 20  1  0
 20 21  2  0
 21 22  1  0
 21 23  1  0
 23 24  2  0
 24 25  1  0
 25 26  1  0
 26 27  1  0
 26 28  1  0
 26 29  1  0
 29 30  1  0
 30 31  2  0
 18 32  2  0
 32 33  1  0
 33 34  2  0
 34 35  1  0
 35 36  1  0
 35 37  2  0
 12 38  1  0
 38 39  1  0
  8  3  1  0
 34 16  1  0
 39  5  1  0
 24 19  1  0
 30 23  1  0
M  END
>  <Ki>  (444) 
820.0

>  <database>  (444) 
SRSLDB

$$$$

     RDKit          2D

 26 28  0  0  0  0  0  0  0  0999 V2000
   -3.2174    2.0203    0.0000 O   0  0  0  0  0  0  0  0  0  0  0  0
   -3.8520    0.6612    0.0000 C   0  0  0  0  0  0  0  0  0  0  0  0
   -2.9922   -0.5680    0.0000 C   0  0  0  0  0  0  0  0  0  0  0  0
   -1.4978   -0.4379    0.0000 C   0  0  0  0  0  0  0  0  0  0  0  0
   -0.6381   -1.6671    0.0000 C   0  0  0  0  0  0  0  0  0  0  0  0
    0.8563   -1.5370    0.0000 N   0  0  0  0  0  0  0  0  0  0  0  0
    1.7161   -2.7662    0.0000 C   0  0  0  0  0  0  0  0  0  0  0  0
    3.2104   -2.6361    0.0000 C   0  0  0  0  0  0  0  0  0  0  0  0
    3.8450   -1.2770    0.0000 C   0  0  0  0  0  0  0  0  0  0  0  0
    5.0733   -2.1379    0.0000 O   0  0  0  0  0  0  0  0  0  0  0  0
    4.9062   -0.2168    0.0000 C   0  0  0  0  0  0  0  0  0  0  0  0
    6.3549   -0.6057    0.0000 C   0  0  0  0  0  0  0  0  0  0  0  0
    7.4160    0.4544    0.0000 C   0  0  0  0  0  0  0  0  0  0  0  0
    7.0285    1.9035    0.0000 C   0  0  0  0  0  0  0  0  0  0  0  0
    8.0897    2.9636    0.0000 Cl  0  0  0  0  0  0  0  0  0  0  0  0
    5.5798    2.2924    0.0000 C   0  0  0  0  0  0  0  0  0  0  0  0
    4.5186    1.2322    0.0000 C   0  0  0  0  0  0  0  0  0  0  0  0
    2.9852   -0.0479    0.0000 C   0  0  0  0  0  0  0  0  0  0  0  0
    1.4909   -0.1779    0.0000 C   0  0  0  0  0  0  0  0  0  0  0  0
   -5.3463    0.5312    0.0000 C   0  0  0  0  0  0  0  0  0  0  0  0
   -6.2061    1.7603    0.0000 C   0  0  0  0  0  0  0  0  0  0  0  0
   -7.7005    1.6303    0.0000 C   0  0  0  0  0  0  0  0  0  0  0  0
   -8.3350    0.2711    0.0000 C   0  0  0  0  0  0  0  0  0  0  0  0
   -9.8294    0.1411    0.0000 F   0  0  0  0  0  0  0  0  0  0  0  0
   -7.4753   -0.9580    0.0000 C   0  0  0  0  0  0  0  0  0  0  0  0
   -5.9809   -0.8280    0.0000 C   0  0  0  0  0  0  0  0  0  0  0  0
  2  1  1  1
  2  3  1  0
  3  4  1  0
  4  5  1  0
  5  6  1  0
  6  7  1  0
  7  8  1  0
  8  9  1  0
  9 10  1  0
  9 11  1  0
 11 12  2  0
 12 13  1  0
 13 14  2  0
 14 15  1  0
 14 16  1  0
 16 17  2  0
  9 18  1  0
 18 19  1  0
  2 20  1  0
 20 21  2  0
 21 22  1  0
 22 23  2  0
 23 24  1  0
 23 25  1  0
 25 26  2  0
 19  6  1  0
 26 20  1  0
 17 11  1  0
M  END
>  <ChemBL_ID>  (445) 
CHEMBL129237

>  <Compound_Key>  (445) 
(S)-(-)-3a,(S)-(-)-HP-II

>  <Ki>  (445) 
8.2

>  <database>  (445) 
CHEMBL

>  <Assay_ChEMBL_ID>  (445) 
CHEMBL846100

>  <Document_ChEMBL_ID>  (445) 
CHEMBL1126960

$$$$

     RDKit          2D

 23 25  0  0  0  0  0  0  0  0999 V2000
    7.1607   -2.5705    0.0000 C   0  0  0  0  0  0  0  0  0  0  0  0
    6.8174   -1.1104    0.0000 O   0  0  0  0  0  0  0  0  0  0  0  0
    5.3811   -0.6776    0.0000 C   0  0  0  0  0  0  0  0  0  0  0  0
    4.2883   -1.7050    0.0000 C   0  0  0  0  0  0  0  0  0  0  0  0
    2.8520   -1.2723    0.0000 C   0  0  0  0  0  0  0  0  0  0  0  0
    2.5087    0.1879    0.0000 C   0  0  0  0  0  0  0  0  0  0  0  0
    3.6016    1.2153    0.0000 C   0  0  0  0  0  0  0  0  0  0  0  0
    5.0378    0.7826    0.0000 C   0  0  0  0  0  0  0  0  0  0  0  0
    3.2583    2.6755    0.0000 C   0  0  0  0  0  0  0  0  0  0  0  0
    1.8220    3.1083    0.0000 C   0  0  0  0  0  0  0  0  0  0  0  0
    0.7292    2.0808    0.0000 C   0  0  0  0  0  0  0  0  0  0  0  0
    1.0725    0.6207    0.0000 C   0  0  0  0  0  0  0  0  0  0  0  0
   -0.0204   -0.4068    0.0000 C   0  0  0  0  0  0  0  0  0  0  0  0
   -1.4566    0.0260    0.0000 C   0  0  0  0  0  0  0  0  0  0  0  0
   -2.5495   -1.0014    0.0000 C   0  0  0  0  0  0  0  0  0  0  0  0
   -3.9857   -0.5687    0.0000 N   0  0  0  0  0  0  0  0  0  0  0  0
   -4.3291    0.8915    0.0000 C   0  0  0  0  0  0  0  0  0  0  0  0
   -3.2362    1.9189    0.0000 C   0  0  0  0  0  0  0  0  0  0  0  0
   -5.7653    1.3242    0.0000 C   0  0  0  0  0  0  0  0  0  0  0  0
   -6.8582    0.2968    0.0000 C   0  0  0  0  0  0  0  0  0  0  0  0
   -6.5148   -1.1634    0.0000 C   0  0  0  0  0  0  0  0  0  0  0  0
   -5.0786   -1.5961    0.0000 C   0  0  0  0  0  0  0  0  0  0  0  0
   -4.7353   -3.0563    0.0000 C   0  0  0  0  0  0  0  0  0  0  0  0
  1  2  1  0
  2  3  1  0
  3  4  2  0
  4  5  1  0
  5  6  2  0
  6  7  1  0
  7  8  2  0
  7  9  1  0
  9 10  1  0
 10 11  1  0
 11 12  1  0
 12 13  1  0
 13 14  1  0
 14 15  1  0
 15 16  1  0
 16 17  1  0
 17 18  1  1
 17 19  1  0
 19 20  1  0
 20 21  1  0
 21 22  1  0
 22 23  1  1
  8  3  1  0
 22 16  1  0
 12  6  1  0
M  END
>  <ChemBL_ID>  (446) 
CHEMBL2365795

>  <Ki>  (446) 
90.9

>  <database>  (446) 
SRSLDB

$$$$

     RDKit          2D

 21 23  0  0  0  0  0  0  0  0999 V2000
    1.8223   -2.3186    0.0000 C   0  0  0  0  0  0  0  0  0  0  0  0
    1.0603   -1.0266    0.0000 C   0  0  0  0  0  0  0  0  0  0  0  0
   -0.4396   -1.0405    0.0000 C   0  0  0  0  0  0  0  0  0  0  0  0
   -1.2016    0.2516    0.0000 O   0  0  0  0  0  0  0  0  0  0  0  0
   -2.7015    0.2377    0.0000 C   0  0  0  0  0  0  0  0  0  0  0  0
   -3.4395   -1.0683    0.0000 C   0  0  0  0  0  0  0  0  0  0  0  0
   -4.9394   -1.0822    0.0000 C   0  0  0  0  0  0  0  0  0  0  0  0
   -6.3702   -0.6319    0.0000 C   0  0  0  0  0  0  0  0  0  0  0  0
   -6.3841    0.8681    0.0000 C   0  0  0  0  0  0  0  0  0  0  0  0
   -4.9619    1.3448    0.0000 C   0  0  0  0  0  0  0  0  0  0  0  0
   -3.4635    1.5297    0.0000 C   0  0  0  0  0  0  0  0  0  0  0  0
   -4.0690    0.1395    0.0000 N   0  0  0  0  0  0  0  0  0  0  0  0
   -3.2974    0.3395    0.0000 C   0  0  0  0  0  0  0  0  0  0  0  0
    1.7983    0.2794    0.0000 O   0  0  0  0  0  0  0  0  0  0  0  0
    3.2982    0.2932    0.0000 C   0  0  0  0  0  0  0  0  0  0  0  0
    4.0602   -0.9988    0.0000 C   0  0  0  0  0  0  0  0  0  0  0  0
    5.5601   -0.9849    0.0000 C   0  0  0  0  0  0  0  0  0  0  0  0
    6.2981    0.3210    0.0000 C   0  0  0  0  0  0  0  0  0  0  0  0
    7.7980    0.3349    0.0000 Cl  0  0  0  0  0  0  0  0  0  0  0  0
    5.5361    1.6131    0.0000 C   0  0  0  0  0  0  0  0  0  0  0  0
    4.0361    1.5992    0.0000 C   0  0  0  0  0  0  0  0  0  0  0  0
  1  2  1  0
  2  3  1  0
  3  4  1  0
  4  5  1  0
  5  6  1  0
  6  7  1  0
  7  8  1  0
  8  9  1  0
  9 10  1  0
 10 11  1  0
 10 12  1  0
 12 13  1  0
  2 14  1  0
 14 15  1  0
 15 16  2  0
 16 17  1  0
 17 18  2  0
 18 19  1  0
 18 20  1  0
 20 21  2  0
 11  5  1  0
 21 15  1  0
 12  7  1  0
M  END
>  <ChemBL_ID>  (447) 
CHEMBL297098

>  <Ki>  (447) 
100.0

>  <database>  (447) 
SRSLDB

$$$$

     RDKit          2D

 27 30  0  0  0  0  0  0  0  0999 V2000
   -0.4752    0.5607    0.0000 O   0  0  0  0  0  0  0  0  0  0  0  0
   -0.4912   -0.9392    0.0000 C   0  0  0  0  0  0  0  0  0  0  0  0
   -1.7982   -1.6753    0.0000 N   0  0  0  0  0  0  0  0  0  0  0  0
   -3.0891   -0.9115    0.0000 C   0  0  0  0  0  0  0  0  0  0  0  0
   -3.0731    0.5885    0.0000 C   0  0  0  0  0  0  0  0  0  0  0  0
   -4.3640    1.3523    0.0000 C   0  0  0  0  0  0  0  0  0  0  0  0
   -5.6710    0.6162    0.0000 C   0  0  0  0  0  0  0  0  0  0  0  0
   -6.9620    1.3801    0.0000 Br  0  0  0  0  0  0  0  0  0  0  0  0
   -5.6871   -0.8837    0.0000 C   0  0  0  0  0  0  0  0  0  0  0  0
   -4.3961   -1.6475    0.0000 C   0  0  0  0  0  0  0  0  0  0  0  0
    0.7997   -1.7031    0.0000 O   0  0  0  0  0  0  0  0  0  0  0  0
    2.1067   -0.9670    0.0000 C   0  0  0  0  0  0  0  0  0  0  0  0
    3.3977   -1.7309    0.0000 C   0  0  0  0  0  0  0  0  0  0  0  0
    4.7047   -0.9948    0.0000 C   0  0  0  0  0  0  0  0  0  0  0  0
    6.0116   -0.2588    0.0000 C   0  0  0  0  0  0  0  0  0  0  0  0
    6.0277    1.2412    0.0000 C   0  0  0  0  0  0  0  0  0  0  0  0
    4.7367    2.0050    0.0000 C   0  0  0  0  0  0  0  0  0  0  0  0
    3.4298    1.2689    0.0000 C   0  0  0  0  0  0  0  0  0  0  0  0
    2.1228    0.5329    0.0000 C   0  0  0  0  0  0  0  0  0  0  0  0
    3.4137   -0.2310    0.0000 N   0  0  0  0  0  0  0  0  0  0  0  0
    2.1067   -0.9670    0.0000 C   0  0  0  0  0  0  0  0  0  0  0  0
    0.8158   -0.2032    0.0000 C   0  0  0  0  0  0  0  0  0  0  0  0
    0.8318    1.2967    0.0000 C   0  0  0  0  0  0  0  0  0  0  0  0
   -0.4591    2.0606    0.0000 C   0  0  0  0  0  0  0  0  0  0  0  0
   -1.7661    1.3245    0.0000 C   0  0  0  0  0  0  0  0  0  0  0  0
   -1.7821   -0.1754    0.0000 C   0  0  0  0  0  0  0  0  0  0  0  0
   -0.4912   -0.9392    0.0000 C   0  0  0  0  0  0  0  0  0  0  0  0
  1  2  2  0
  2  3  1  0
  3  4  1  0
  4  5  2  0
  5  6  1  0
  6  7  2  0
  7  8  1  0
  7  9  1  0
  9 10  2  0
  2 11  1  0
 11 12  1  0
 12 13  1  0
 13 14  1  0
 14 15  1  0
 15 16  1  0
 16 17  1  0
 17 18  1  0
 18 19  1  0
 18 20  1  0
 20 21  1  0
 21 22  1  0
 22 23  2  0
 23 24  1  0
 24 25  2  0
 25 26  1  0
 26 27  2  0
 10  4  1  0
 19 12  1  0
 27 22  1  0
 20 14  1  0
M  END
>  <Ki>  (448) 
10.9

>  <database>  (448) 
SRSLDB

$$$$

     RDKit          2D

 26 29  0  0  0  0  0  0  0  0999 V2000
   -8.0194   -1.7377    0.0000 C   0  0  0  0  0  0  0  0  0  0  0  0
   -7.4756   -0.3397    0.0000 C   0  0  0  0  0  0  0  0  0  0  0  0
   -8.9468   -0.0470    0.0000 C   0  0  0  0  0  0  0  0  0  0  0  0
   -7.4429    1.1599    0.0000 C   0  0  0  0  0  0  0  0  0  0  0  0
   -6.1277    1.8813    0.0000 C   0  0  0  0  0  0  0  0  0  0  0  0
   -4.8454    1.1031    0.0000 C   0  0  0  0  0  0  0  0  0  0  0  0
   -4.8782   -0.3965    0.0000 N   0  0  0  0  0  0  0  0  0  0  0  0
   -3.5958   -1.1747    0.0000 C   0  0  0  0  0  0  0  0  0  0  0  0
   -2.2807   -0.4533    0.0000 C   0  0  0  0  0  0  0  0  0  0  0  0
   -0.9984   -1.2315    0.0000 C   0  0  0  0  0  0  0  0  0  0  0  0
    0.3167   -0.5101    0.0000 C   0  0  0  0  0  0  0  0  0  0  0  0
    1.5991   -1.2883    0.0000 C   0  0  0  0  0  0  0  0  0  0  0  0
    2.9142   -0.5669    0.0000 N   0  0  0  0  0  0  0  0  0  0  0  0
    4.2708   -1.2068    0.0000 C   0  0  0  0  0  0  0  0  0  0  0  0
    4.7031   -2.6432    0.0000 C   0  0  0  0  0  0  0  0  0  0  0  0
    6.1631   -2.9870    0.0000 C   0  0  0  0  0  0  0  0  0  0  0  0
    7.1910   -1.8945    0.0000 C   0  0  0  0  0  0  0  0  0  0  0  0
    6.7587   -0.4581    0.0000 C   0  0  0  0  0  0  0  0  0  0  0  0
    5.2987   -0.1143    0.0000 C   0  0  0  0  0  0  0  0  0  0  0  0
    4.5772    1.2008    0.0000 C   0  0  0  0  0  0  0  0  0  0  0  0
    5.0718    2.6170    0.0000 C   0  0  0  0  0  0  0  0  0  0  0  0
    4.0927    3.7533    0.0000 C   0  0  0  0  0  0  0  0  0  0  0  0
    2.6191    3.4736    0.0000 C   0  0  0  0  0  0  0  0  0  0  0  0
    2.1245    2.0575    0.0000 C   0  0  0  0  0  0  0  0  0  0  0  0
    3.1035    0.9211    0.0000 C   0  0  0  0  0  0  0  0  0  0  0  0
   -6.1933   -1.1179    0.0000 C   0  0  0  0  0  0  0  0  0  0  0  0
  1  2  1  0
  2  3  1  0
  2  4  1  0
  4  5  1  0
  5  6  1  0
  6  7  1  0
  7  8  1  0
  8  9  1  0
  9 10  1  0
 10 11  1  0
 11 12  1  0
 12 13  1  0
 13 14  1  0
 14 15  2  0
 15 16  1  0
 16 17  2  0
 17 18  1  0
 18 19  2  0
 19 20  1  0
 20 21  2  0
 21 22  1  0
 22 23  2  0
 23 24  1  0
 24 25  2  0
  7 26  1  0
 26  2  1  0
 25 13  1  0
 19 14  1  0
 25 20  1  0
M  END
>  <ChemBL_ID>  (449) 
CHEMBL1189140

>  <Ki>  (449) 
117.0

>  <database>  (449) 
SRSLDB

$$$$

     RDKit          2D

 28 31  0  0  0  0  0  0  0  0999 V2000
   -6.8405    2.4044    0.0000 C   0  0  0  0  0  0  0  0  0  0  0  0
   -6.7740    0.9058    0.0000 C   0  0  0  0  0  0  0  0  0  0  0  0
   -5.4430    0.2142    0.0000 C   0  0  0  0  0  0  0  0  0  0  0  0
   -4.1785    1.0210    0.0000 C   0  0  0  0  0  0  0  0  0  0  0  0
   -2.8475    0.3294    0.0000 C   0  0  0  0  0  0  0  0  0  0  0  0
   -2.7809   -1.1691    0.0000 C   0  0  0  0  0  0  0  0  0  0  0  0
   -1.4499   -1.8608    0.0000 N   0  0  0  0  0  0  0  0  0  0  0  0
   -0.1854   -1.0539    0.0000 C   0  0  0  0  0  0  0  0  0  0  0  0
   -0.2519    0.4446    0.0000 O   0  0  0  0  0  0  0  0  0  0  0  0
    1.1456   -1.7456    0.0000 O   0  0  0  0  0  0  0  0  0  0  0  0
    2.4101   -0.9387    0.0000 C   0  0  0  0  0  0  0  0  0  0  0  0
    3.7411   -1.6303    0.0000 C   0  0  0  0  0  0  0  0  0  0  0  0
    5.0056   -0.8235    0.0000 C   0  0  0  0  0  0  0  0  0  0  0  0
    6.2701   -0.0166    0.0000 C   0  0  0  0  0  0  0  0  0  0  0  0
    6.2036    1.4819    0.0000 C   0  0  0  0  0  0  0  0  0  0  0  0
    4.8726    2.1736    0.0000 C   0  0  0  0  0  0  0  0  0  0  0  0
    3.6081    1.3667    0.0000 C   0  0  0  0  0  0  0  0  0  0  0  0
    2.3436    0.5598    0.0000 C   0  0  0  0  0  0  0  0  0  0  0  0
    3.6746   -0.1318    0.0000 N   0  0  0  0  0  0  0  0  0  0  0  0
    2.4101   -0.9387    0.0000 C   0  0  0  0  0  0  0  0  0  0  0  0
    1.0791   -0.2470    0.0000 C   0  0  0  0  0  0  0  0  0  0  0  0
    1.0126    1.2515    0.0000 C   0  0  0  0  0  0  0  0  0  0  0  0
   -0.3185    1.9431    0.0000 C   0  0  0  0  0  0  0  0  0  0  0  0
   -1.5830    1.1363    0.0000 C   0  0  0  0  0  0  0  0  0  0  0  0
   -1.5164   -0.3623    0.0000 C   0  0  0  0  0  0  0  0  0  0  0  0
   -0.1854   -1.0539    0.0000 C   0  0  0  0  0  0  0  0  0  0  0  0
   -4.0454   -1.9760    0.0000 C   0  0  0  0  0  0  0  0  0  0  0  0
   -5.3765   -1.2843    0.0000 C   0  0  0  0  0  0  0  0  0  0  0  0
  1  2  1  0
  2  3  1  0
  3  4  2  0
  4  5  1  0
  5  6  2  0
  6  7  1  0
  7  8  1  0
  8  9  2  0
  8 10  1  0
 10 11  1  0
 11 12  1  0
 12 13  1  0
 13 14  1  0
 14 15  1  0
 15 16  1  0
 16 17  1  0
 17 18  1  0
 17 19  1  0
 19 20  1  0
 20 21  1  0
 21 22  2  0
 22 23  1  0
 23 24  2  0
 24 25  1  0
 25 26  2  0
  6 27  1  0
 27 28  2  0
 28  3  1  0
 18 11  1  0
 26 21  1  0
 19 13  1  0
M  END
>  <Ki>  (450) 
14.6

>  <database>  (450) 
SRSLDB

$$$$

     RDKit          2D

 31 34  0  0  0  0  0  0  0  0999 V2000
    5.5521   -2.7893    0.0000 C   0  0  0  0  0  0  0  0  0  0  0  0
    5.7717   -1.3054    0.0000 C   0  0  0  0  0  0  0  0  0  0  0  0
    7.1665   -0.7537    0.0000 O   0  0  0  0  0  0  0  0  0  0  0  0
    4.5964   -0.3734    0.0000 C   0  0  0  0  0  0  0  0  0  0  0  0
    5.7184    0.6222    0.0000 C   0  0  0  0  0  0  0  0  0  0  0  0
    7.1416    0.1483    0.0000 C   0  0  0  0  0  0  0  0  0  0  0  0
    8.2636    1.1439    0.0000 C   0  0  0  0  0  0  0  0  0  0  0  0
    7.9624    2.6133    0.0000 C   0  0  0  0  0  0  0  0  0  0  0  0
    6.5392    3.0872    0.0000 C   0  0  0  0  0  0  0  0  0  0  0  0
    5.4172    2.0916    0.0000 C   0  0  0  0  0  0  0  0  0  0  0  0
    3.8108    0.9044    0.0000 C   0  0  0  0  0  0  0  0  0  0  0  0
    2.3114    0.8630    0.0000 C   0  0  0  0  0  0  0  0  0  0  0  0
    1.5976   -0.4563    0.0000 N   0  0  0  0  0  0  0  0  0  0  0  0
    0.0981   -0.4977    0.0000 C   0  0  0  0  0  0  0  0  0  0  0  0
   -0.6875    0.7801    0.0000 C   0  0  0  0  0  0  0  0  0  0  0  0
   -2.1869    0.7386    0.0000 C   0  0  0  0  0  0  0  0  0  0  0  0
   -2.9007   -0.5806    0.0000 C   0  0  0  0  0  0  0  0  0  0  0  0
   -4.4001   -0.6221    0.0000 O   0  0  0  0  0  0  0  0  0  0  0  0
   -5.1857    0.6557    0.0000 C   0  0  0  0  0  0  0  0  0  0  0  0
   -6.6852    0.6143    0.0000 C   0  0  0  0  0  0  0  0  0  0  0  0
   -7.4708    1.8921    0.0000 C   0  0  0  0  0  0  0  0  0  0  0  0
   -8.9702    1.8507    0.0000 C   0  0  0  0  0  0  0  0  0  0  0  0
   -9.6840    0.5314    0.0000 C   0  0  0  0  0  0  0  0  0  0  0  0
  -11.1835    0.4899    0.0000 F   0  0  0  0  0  0  0  0  0  0  0  0
   -8.8984   -0.7464    0.0000 C   0  0  0  0  0  0  0  0  0  0  0  0
   -7.3990   -0.7050    0.0000 C   0  0  0  0  0  0  0  0  0  0  0  0
   -2.1151   -1.8584    0.0000 C   0  0  0  0  0  0  0  0  0  0  0  0
   -0.6157   -1.8170    0.0000 C   0  0  0  0  0  0  0  0  0  0  0  0
    0.1699   -3.0948    0.0000 O   0  0  0  0  0  0  0  0  0  0  0  0
    2.3832   -1.7341    0.0000 C   0  0  0  0  0  0  0  0  0  0  0  0
    3.8826   -1.6926    0.0000 C   0  0  0  0  0  0  0  0  0  0  0  0
  1  2  1  0
  2  3  2  0
  2  4  1  0
  4  5  1  0
  5  6  2  0
  6  7  1  0
  7  8  2  0
  8  9  1  0
  9 10  2  0
  4 11  1  0
 11 12  1  0
 12 13  1  0
 14 13  1  1
 14 15  1  0
 15 16  1  0
 16 17  1  0
 17 18  1  6
 18 19  1  0
 19 20  1  0
 20 21  2  0
 21 22  1  0
 22 23  2  0
 23 24  1  0
 23 25  1  0
 25 26  2  0
 17 27  1  0
 27 28  1  0
 28 29  1  6
 13 30  1  0
 30 31  1  0
 31  4  1  0
 10  5  1  0
 28 14  1  0
 26 20  1  0
M  END
>  <Ki>  (451) 
103.0

>  <database>  (451) 
SRSLDB

$$$$

     RDKit          2D

 42 46  0  0  0  0  0  0  0  0999 V2000
  -18.3926    3.7860    0.0000 F   0  0  0  0  0  0  0  0  0  0  0  0
  -17.5718    2.5305    0.0000 C   0  0  0  0  0  0  0  0  0  0  0  0
  -16.0741    2.6136    0.0000 C   0  0  0  0  0  0  0  0  0  0  0  0
  -15.2533    1.3581    0.0000 O   0  0  0  0  0  0  0  0  0  0  0  0
  -13.7556    1.4412    0.0000 C   0  0  0  0  0  0  0  0  0  0  0  0
  -12.9348    0.1858    0.0000 C   0  0  0  0  0  0  0  0  0  0  0  0
  -11.4371    0.2689    0.0000 O   0  0  0  0  0  0  0  0  0  0  0  0
  -10.6162   -0.9866    0.0000 C   0  0  0  0  0  0  0  0  0  0  0  0
   -9.1185   -0.9035    0.0000 C   0  0  0  0  0  0  0  0  0  0  0  0
   -8.2977   -2.1590    0.0000 O   0  0  0  0  0  0  0  0  0  0  0  0
   -6.8000   -2.0758    0.0000 C   0  0  0  0  0  0  0  0  0  0  0  0
   -6.1231   -0.7372    0.0000 C   0  0  0  0  0  0  0  0  0  0  0  0
   -4.6254   -0.6541    0.0000 C   0  0  0  0  0  0  0  0  0  0  0  0
   -3.8046   -1.9096    0.0000 C   0  0  0  0  0  0  0  0  0  0  0  0
   -2.3069   -1.8265    0.0000 N   0  0  0  0  0  0  0  0  0  0  0  0
   -1.4861   -3.0819    0.0000 C   0  0  0  0  0  0  0  0  0  0  0  0
    0.0116   -2.9988    0.0000 C   0  0  0  0  0  0  0  0  0  0  0  0
    0.6885   -1.6602    0.0000 N   0  0  0  0  0  0  0  0  0  0  0  0
    2.1862   -1.5771    0.0000 C   0  0  0  0  0  0  0  0  0  0  0  0
    2.8630   -0.2385    0.0000 C   0  0  0  0  0  0  0  0  0  0  0  0
    4.3607   -0.1554    0.0000 C   0  0  0  0  0  0  0  0  0  0  0  0
    5.0376    1.1832    0.0000 C   0  0  0  0  0  0  0  0  0  0  0  0
    6.5353    1.2664    0.0000 C   0  0  0  0  0  0  0  0  0  0  0  0
    7.4829    0.1036    0.0000 C   0  0  0  0  0  0  0  0  0  0  0  0
    8.8816    0.6454    0.0000 N   0  0  0  0  0  0  0  0  0  0  0  0
   10.1421   -0.1676    0.0000 C   0  0  0  0  0  0  0  0  0  0  0  0
   10.0682   -1.6658    0.0000 C   0  0  0  0  0  0  0  0  0  0  0  0
   11.3287   -2.4789    0.0000 C   0  0  0  0  0  0  0  0  0  0  0  0
   12.6631   -1.7938    0.0000 C   0  0  0  0  0  0  0  0  0  0  0  0
   13.9236   -2.6069    0.0000 F   0  0  0  0  0  0  0  0  0  0  0  0
   12.7370   -0.2956    0.0000 C   0  0  0  0  0  0  0  0  0  0  0  0
   11.4765    0.5175    0.0000 C   0  0  0  0  0  0  0  0  0  0  0  0
    8.7984    2.1431    0.0000 C   0  0  0  0  0  0  0  0  0  0  0  0
    9.8558    3.2070    0.0000 C   0  0  0  0  0  0  0  0  0  0  0  0
    9.4631    4.6547    0.0000 C   0  0  0  0  0  0  0  0  0  0  0  0
    8.0130    5.0385    0.0000 C   0  0  0  0  0  0  0  0  0  0  0  0
    6.9557    3.9746    0.0000 C   0  0  0  0  0  0  0  0  0  0  0  0
    7.3484    2.5269    0.0000 C   0  0  0  0  0  0  0  0  0  0  0  0
   -0.1324   -0.4047    0.0000 C   0  0  0  0  0  0  0  0  0  0  0  0
   -1.6301   -0.4879    0.0000 C   0  0  0  0  0  0  0  0  0  0  0  0
   -4.4815   -3.2482    0.0000 C   0  0  0  0  0  0  0  0  0  0  0  0
   -5.9792   -3.3313    0.0000 C   0  0  0  0  0  0  0  0  0  0  0  0
  1  2  1  0
  2  3  1  0
  3  4  1  0
  4  5  1  0
  5  6  1  0
  6  7  1  0
  7  8  1  0
  8  9  1  0
  9 10  1  0
 10 11  1  0
 11 12  2  0
 12 13  1  0
 13 14  2  0
 14 15  1  0
 15 16  1  0
 16 17  1  0
 17 18  1  0
 18 19  1  0
 19 20  1  0
 20 21  1  0
 21 22  1  0
 22 23  1  0
 23 24  2  0
 24 25  1  0
 25 26  1  0
 26 27  2  0
 27 28  1  0
 28 29  2  0
 29 30  1  0
 29 31  1  0
 31 32  2  0
 25 33  1  0
 33 34  2  0
 34 35  1  0
 35 36  2  0
 36 37  1  0
 37 38  2  0
 18 39  1  0
 39 40  1  0
 14 41  1  0
 41 42  2  0
 42 11  1  0
 40 15  1  0
 38 23  1  0
 32 26  1  0
 38 33  1  0
M  END
>  <Ki>  (452) 
1879.0

>  <database>  (452) 
SRSLDB

$$$$

     RDKit          2D

 22 28  0  0  0  0  0  0  0  0999 V2000
    2.2020   -1.1976    0.0000 C   0  0  0  0  0  0  0  0  0  0  0  0
    3.5788   -1.7931    0.0000 C   0  0  0  0  0  0  0  0  0  0  0  0
    4.7828   -0.8985    0.0000 C   0  0  0  0  0  0  0  0  0  0  0  0
    4.6101    0.5915    0.0000 C   0  0  0  0  0  0  0  0  0  0  0  0
    3.2334    1.1870    0.0000 C   0  0  0  0  0  0  0  0  0  0  0  0
    2.0293    0.2924    0.0000 C   0  0  0  0  0  0  0  0  0  0  0  0
    0.6526    0.8879    0.0000 C   0  0  0  0  0  0  0  0  0  0  0  0
   -0.5515   -0.0067    0.0000 N   0  0  0  0  0  0  0  0  0  0  0  0
   -1.9282    0.5888    0.0000 C   0  0  0  0  0  0  0  0  0  0  0  0
   -2.2557    2.0526    0.0000 C   0  0  0  0  0  0  0  0  0  0  0  0
   -2.7302    0.6296    0.0000 C   0  0  0  0  0  0  0  0  0  0  0  0
   -2.2777   -0.8005    0.0000 C   0  0  0  0  0  0  0  0  0  0  0  0
   -3.4979   -1.6728    0.0000 C   0  0  0  0  0  0  0  0  0  0  0  0
   -4.7046   -0.7819    0.0000 C   0  0  0  0  0  0  0  0  0  0  0  0
   -4.2301    0.6411    0.0000 C   0  0  0  0  0  0  0  0  0  0  0  0
   -4.6827    2.0712    0.0000 C   0  0  0  0  0  0  0  0  0  0  0  0
   -3.4624    2.9436    0.0000 C   0  0  0  0  0  0  0  0  0  0  0  0
   -5.5956   -1.9886    0.0000 C   0  0  0  0  0  0  0  0  0  0  0  0
   -4.3889   -2.8795    0.0000 C   0  0  0  0  0  0  0  0  0  0  0  0
    5.9739    1.2162    0.0000 O   0  0  0  0  0  0  0  0  0  0  0  0
    6.9894    0.1122    0.0000 C   0  0  0  0  0  0  0  0  0  0  0  0
    6.2533   -1.1947    0.0000 O   0  0  0  0  0  0  0  0  0  0  0  0
  1  2  2  0
  2  3  1  0
  3  4  2  0
  4  5  1  0
  5  6  2  0
  6  7  1  0
  7  8  1  0
  8  9  1  0
  9 10  1  0
 10 11  1  0
 11 12  1  0
 12 13  1  0
 13 14  1  0
 14 15  1  0
 15 16  1  0
 16 17  1  0
 17 18  1  0
 18 19  1  0
  4 20  1  0
 20 21  1  0
 21 22  1  0
  6  1  1  0
 19  9  1  0
 22  3  1  0
 17 10  1  0
 15 11  1  0
 19 13  1  0
 18 14  1  0
M  END
>  <ChemBL_ID>  (453) 
CHEMBL2429890

>  <Ki>  (453) 
15.0

>  <database>  (453) 
SRSLDB

$$$$

     RDKit          2D

 26 29  0  0  0  0  0  0  0  0999 V2000
   -9.1808   -1.8725    0.0000 C   0  0  0  0  0  0  0  0  0  0  0  0
   -7.6833   -1.9589    0.0000 O   0  0  0  0  0  0  0  0  0  0  0  0
   -6.8597   -0.7052    0.0000 C   0  0  0  0  0  0  0  0  0  0  0  0
   -7.5336    0.6348    0.0000 C   0  0  0  0  0  0  0  0  0  0  0  0
   -6.7101    1.8885    0.0000 C   0  0  0  0  0  0  0  0  0  0  0  0
   -5.2125    1.8021    0.0000 C   0  0  0  0  0  0  0  0  0  0  0  0
   -4.5386    0.4620    0.0000 C   0  0  0  0  0  0  0  0  0  0  0  0
   -3.0411    0.3756    0.0000 C   0  0  0  0  0  0  0  0  0  0  0  0
   -2.3672   -0.9644    0.0000 C   0  0  0  0  0  0  0  0  0  0  0  0
   -0.8697   -1.0508    0.0000 C   0  0  0  0  0  0  0  0  0  0  0  0
   -0.0461    0.2028    0.0000 C   0  0  0  0  0  0  0  0  0  0  0  0
    1.4514    0.1164    0.0000 N   0  0  0  0  0  0  0  0  0  0  0  0
    2.1254   -1.2236    0.0000 C   0  0  0  0  0  0  0  0  0  0  0  0
    3.6229   -1.3100    0.0000 C   0  0  0  0  0  0  0  0  0  0  0  0
    4.4464   -0.0564    0.0000 N   0  0  0  0  0  0  0  0  0  0  0  0
    5.9440   -0.1428    0.0000 C   0  0  0  0  0  0  0  0  0  0  0  0
    6.6179   -1.4828    0.0000 C   0  0  0  0  0  0  0  0  0  0  0  0
    8.1154   -1.5692    0.0000 C   0  0  0  0  0  0  0  0  0  0  0  0
    8.9390   -0.3156    0.0000 C   0  0  0  0  0  0  0  0  0  0  0  0
    8.2650    1.0245    0.0000 C   0  0  0  0  0  0  0  0  0  0  0  0
    6.7675    1.1109    0.0000 N   0  0  0  0  0  0  0  0  0  0  0  0
    3.7725    1.2837    0.0000 C   0  0  0  0  0  0  0  0  0  0  0  0
    2.2750    1.3701    0.0000 C   0  0  0  0  0  0  0  0  0  0  0  0
   -0.7200    1.5429    0.0000 C   0  0  0  0  0  0  0  0  0  0  0  0
   -2.2175    1.6293    0.0000 C   0  0  0  0  0  0  0  0  0  0  0  0
   -5.3622   -0.7916    0.0000 C   0  0  0  0  0  0  0  0  0  0  0  0
  1  2  1  0
  2  3  1  0
  3  4  2  0
  4  5  1  0
  5  6  2  0
  6  7  1  0
  8  7  1  6
  8  9  1  0
  9 10  1  0
 10 11  1  0
 11 12  1  1
 12 13  1  0
 13 14  1  0
 14 15  1  0
 15 16  1  0
 16 17  2  0
 17 18  1  0
 18 19  2  0
 19 20  1  0
 20 21  2  0
 15 22  1  0
 22 23  1  0
 11 24  1  0
 24 25  1  0
  7 26  2  0
 26  3  1  0
 25  8  1  0
 23 12  1  0
 21 16  1  0
M  END
>  <ChemBL_ID>  (454) 
CHEMBL511857

>  <Ki>  (454) 
21.9

>  <database>  (454) 
SRSLDB

$$$$

     RDKit          2D

 41 45  0  0  0  0  0  0  0  0999 V2000
   -9.9370   -0.6067    0.0000 C   0  0  0  0  0  0  0  0  0  0  0  0
   -8.6851   -1.4329    0.0000 C   0  0  0  0  0  0  0  0  0  0  0  0
   -9.7161   -2.5224    0.0000 C   0  0  0  0  0  0  0  0  0  0  0  0
   -7.7912   -2.6375    0.0000 C   0  0  0  0  0  0  0  0  0  0  0  0
   -6.3010   -2.4656    0.0000 O   0  0  0  0  0  0  0  0  0  0  0  0
   -5.7048   -1.0892    0.0000 C   0  0  0  0  0  0  0  0  0  0  0  0
   -4.4529   -1.9154    0.0000 C   0  0  0  0  0  0  0  0  0  0  0  0
   -3.1114   -1.2442    0.0000 C   0  0  0  0  0  0  0  0  0  0  0  0
   -1.8594   -2.0704    0.0000 C   0  0  0  0  0  0  0  0  0  0  0  0
   -0.5179   -1.3993    0.0000 N   0  0  0  0  0  0  0  0  0  0  0  0
    0.6688   -2.3167    0.0000 C   0  0  0  0  0  0  0  0  0  0  0  0
    2.1260   -1.9609    0.0000 C   0  0  0  0  0  0  0  0  0  0  0  0
    2.7563   -0.5997    0.0000 C   0  0  0  0  0  0  0  0  0  0  0  0
    4.2537   -0.6893    0.0000 C   0  0  0  0  0  0  0  0  0  0  0  0
    5.0798    0.5627    0.0000 C   0  0  0  0  0  0  0  0  0  0  0  0
    6.5772    0.4732    0.0000 O   0  0  0  0  0  0  0  0  0  0  0  0
    7.2483   -0.8683    0.0000 C   0  0  0  0  0  0  0  0  0  0  0  0
    8.7456   -0.9578    0.0000 C   0  0  0  0  0  0  0  0  0  0  0  0
    9.4168   -2.2993    0.0000 C   0  0  0  0  0  0  0  0  0  0  0  0
   10.9141   -2.3888    0.0000 C   0  0  0  0  0  0  0  0  0  0  0  0
   11.7403   -1.1368    0.0000 C   0  0  0  0  0  0  0  0  0  0  0  0
   11.0692    0.2047    0.0000 C   0  0  0  0  0  0  0  0  0  0  0  0
    9.5718    0.2942    0.0000 C   0  0  0  0  0  0  0  0  0  0  0  0
    4.4087    1.9042    0.0000 C   0  0  0  0  0  0  0  0  0  0  0  0
    2.9114    1.9937    0.0000 C   0  0  0  0  0  0  0  0  0  0  0  0
    2.0852    0.7417    0.0000 C   0  0  0  0  0  0  0  0  0  0  0  0
    0.6179    1.0534    0.0000 C   0  0  0  0  0  0  0  0  0  0  0  0
    0.2621    2.5106    0.0000 O   0  0  0  0  0  0  0  0  0  0  0  0
   -0.5406    0.1006    0.0000 C   0  0  0  0  0  0  0  0  0  0  0  0
   -4.6738    0.0003    0.0000 C   0  0  0  0  0  0  0  0  0  0  0  0
   -3.2148   -0.3479    0.0000 C   0  0  0  0  0  0  0  0  0  0  0  0
   -2.1837    0.7416    0.0000 C   0  0  0  0  0  0  0  0  0  0  0  0
   -2.6117    2.1793    0.0000 C   0  0  0  0  0  0  0  0  0  0  0  0
   -1.5807    3.2687    0.0000 C   0  0  0  0  0  0  0  0  0  0  0  0
   -2.6702    4.2998    0.0000 C   0  0  0  0  0  0  0  0  0  0  0  0
   -0.4912    2.2377    0.0000 C   0  0  0  0  0  0  0  0  0  0  0  0
   -0.5497    4.3582    0.0000 C   0  0  0  0  0  0  0  0  0  0  0  0
   -4.0708    2.5274    0.0000 C   0  0  0  0  0  0  0  0  0  0  0  0
   -5.1018    1.4379    0.0000 C   0  0  0  0  0  0  0  0  0  0  0  0
   -6.5987    0.1154    0.0000 O   0  0  0  0  0  0  0  0  0  0  0  0
   -8.0888   -0.0565    0.0000 C   0  0  0  0  0  0  0  0  0  0  0  0
  1  2  1  0
  2  3  1  0
  2  4  1  0
  4  5  1  0
  5  6  1  0
  6  7  1  0
  7  8  1  0
  8  9  1  0
  9 10  1  0
 10 11  1  0
 11 12  1  0
 12 13  1  0
 13 14  2  0
 14 15  1  0
 15 16  1  0
 16 17  1  0
 17 18  1  0
 18 19  2  0
 19 20  1  0
 20 21  2  0
 21 22  1  0
 22 23  2  0
 15 24  2  0
 24 25  1  0
 25 26  2  0
 26 27  1  0
 27 28  1  0
 27 29  1  0
  6 30  1  0
 30 31  2  0
 31 32  1  0
 32 33  2  0
 33 34  1  0
 34 35  1  0
 34 36  1  0
 34 37  1  0
 33 38  1  0
 38 39  2  0
  6 40  1  0
 40 41  1  0
 41  2  1  0
 29 10  1  0
 39 30  1  0
 26 13  1  0
 23 18  1  0
M  END
>  <ChemBL_ID>  (455) 
CHEMBL1290270

>  <Ki>  (455) 
900.0

>  <database>  (455) 
SRSLDB

$$$$

     RDKit          2D

 25 29  0  0  0  0  0  0  0  0999 V2000
   -7.6697    1.5310    0.0000 C   0  0  0  0  0  0  0  0  0  0  0  0
   -6.6647    2.6446    0.0000 C   0  0  0  0  0  0  0  0  0  0  0  0
   -5.1979    2.3311    0.0000 C   0  0  0  0  0  0  0  0  0  0  0  0
   -4.7359    0.9040    0.0000 C   0  0  0  0  0  0  0  0  0  0  0  0
   -5.7408   -0.2096    0.0000 C   0  0  0  0  0  0  0  0  0  0  0  0
   -7.2077    0.1039    0.0000 C   0  0  0  0  0  0  0  0  0  0  0  0
   -4.9922   -1.5094    0.0000 C   0  0  0  0  0  0  0  0  0  0  0  0
   -3.5247   -1.1992    0.0000 N   0  0  0  0  0  0  0  0  0  0  0  0
   -2.4111   -2.2041    0.0000 C   0  0  0  0  0  0  0  0  0  0  0  0
   -0.9840   -1.7421    0.0000 C   0  0  0  0  0  0  0  0  0  0  0  0
    0.1296   -2.7471    0.0000 C   0  0  0  0  0  0  0  0  0  0  0  0
    1.5567   -2.2851    0.0000 N   0  0  0  0  0  0  0  0  0  0  0  0
    2.6704   -3.2900    0.0000 C   0  0  0  0  0  0  0  0  0  0  0  0
    4.0974   -2.8280    0.0000 C   0  0  0  0  0  0  0  0  0  0  0  0
    4.4109   -1.3612    0.0000 C   0  0  0  0  0  0  0  0  0  0  0  0
    5.7108   -0.6126    0.0000 O   0  0  0  0  0  0  0  0  0  0  0  0
    5.4005    0.8550    0.0000 C   0  0  0  0  0  0  0  0  0  0  0  0
    6.2835    2.0675    0.0000 C   0  0  0  0  0  0  0  0  0  0  0  0
    5.6749    3.4385    0.0000 C   0  0  0  0  0  0  0  0  0  0  0  0
    4.1833    3.5969    0.0000 C   0  0  0  0  0  0  0  0  0  0  0  0
    3.3003    2.3844    0.0000 C   0  0  0  0  0  0  0  0  0  0  0  0
    3.9089    1.0134    0.0000 C   0  0  0  0  0  0  0  0  0  0  0  0
    3.2973   -0.3563    0.0000 C   0  0  0  0  0  0  0  0  0  0  0  0
    1.8702   -0.8182    0.0000 C   0  0  0  0  0  0  0  0  0  0  0  0
   -3.3663    0.2924    0.0000 C   0  0  0  0  0  0  0  0  0  0  0  0
  1  2  2  0
  2  3  1  0
  3  4  2  0
  4  5  1  0
  5  6  2  0
  5  7  1  0
  7  8  1  0
  8  9  1  0
  9 10  1  0
 10 11  1  0
 11 12  1  0
 12 13  1  0
 13 14  1  0
 14 15  1  0
 15 16  1  0
 16 17  1  0
 17 18  2  0
 18 19  1  0
 19 20  2  0
 20 21  1  0
 21 22  2  0
 22 23  1  0
 23 24  1  0
  8 25  1  0
  6  1  1  0
 24 12  1  0
 25  4  1  0
 23 15  2  0
 22 17  1  0
M  END
>  <Ki>  (456) 
9.9

>  <database>  (456) 
SRSLDB

$$$$

     RDKit          2D

 20 25  0  0  0  0  0  0  0  0999 V2000
   -1.0672   -2.3388    0.0000 C   0  0  0  0  0  0  0  0  0  0  0  0
   -0.3431   -1.0251    0.0000 N   0  0  0  0  0  0  0  0  0  0  0  0
   -1.1188    0.2588    0.0000 C   0  0  0  0  0  0  0  0  0  0  0  0
   -2.6185    0.2290    0.0000 C   0  0  0  0  0  0  0  0  0  0  0  0
   -3.3941    1.5129    0.0000 C   0  0  0  0  0  0  0  0  0  0  0  0
   -4.8938    1.4831    0.0000 C   0  0  0  0  0  0  0  0  0  0  0  0
   -5.6179    0.1695    0.0000 C   0  0  0  0  0  0  0  0  0  0  0  0
   -4.8422   -1.1144    0.0000 N   0  0  0  0  0  0  0  0  0  0  0  0
   -3.3425   -1.0847    0.0000 C   0  0  0  0  0  0  0  0  0  0  0  0
    1.1566   -0.9954    0.0000 C   0  0  0  0  0  0  0  0  0  0  0  0
    2.0622   -2.1911    0.0000 C   0  0  0  0  0  0  0  0  0  0  0  0
    1.9031   -0.6996    0.0000 C   0  0  0  0  0  0  0  0  0  0  0  0
    0.8978    0.4136    0.0000 C   0  0  0  0  0  0  0  0  0  0  0  0
    1.6458    1.7138    0.0000 C   0  0  0  0  0  0  0  0  0  0  0  0
    3.1135    1.4041    0.0000 C   0  0  0  0  0  0  0  0  0  0  0  0
    3.2726   -0.0874    0.0000 C   0  0  0  0  0  0  0  0  0  0  0  0
    4.2779   -1.2007    0.0000 C   0  0  0  0  0  0  0  0  0  0  0  0
    3.5299   -2.5008    0.0000 C   0  0  0  0  0  0  0  0  0  0  0  0
    3.4232    2.8718    0.0000 C   0  0  0  0  0  0  0  0  0  0  0  0
    1.9555    3.1815    0.0000 C   0  0  0  0  0  0  0  0  0  0  0  0
  1  2  1  0
  2  3  1  0
  3  4  1  0
  4  5  2  0
  5  6  1  0
  6  7  2  0
  7  8  1  0
  8  9  2  0
  2 10  1  0
 10 11  1  0
 11 12  1  0
 12 13  1  0
 13 14  1  0
 14 15  1  0
 15 16  1  0
 16 17  1  0
 17 18  1  0
 18 19  1  0
 19 20  1  0
  9  4  1  0
 20 10  1  0
 18 11  1  0
 16 12  1  0
 20 14  1  0
 19 15  1  0
M  END
>  <ChemBL_ID>  (457) 
CHEMBL2432057

>  <Ki>  (457) 
881.0

>  <database>  (457) 
SRSLDB

$$$$

     RDKit          2D

 24 27  0  0  0  0  0  0  0  0999 V2000
    2.2328   -3.1329    0.0000 O   0  0  0  0  0  0  0  0  0  0  0  0
    2.7972   -1.7432    0.0000 C   0  0  0  0  0  0  0  0  0  0  0  0
    4.2830   -1.5371    0.0000 C   0  0  0  0  0  0  0  0  0  0  0  0
    4.8475   -0.1474    0.0000 C   0  0  0  0  0  0  0  0  0  0  0  0
    6.3332    0.0587    0.0000 C   0  0  0  0  0  0  0  0  0  0  0  0
    6.8977    1.4484    0.0000 C   0  0  0  0  0  0  0  0  0  0  0  0
    5.9763    2.6321    0.0000 C   0  0  0  0  0  0  0  0  0  0  0  0
    4.4905    2.4261    0.0000 C   0  0  0  0  0  0  0  0  0  0  0  0
    3.9261    1.0363    0.0000 C   0  0  0  0  0  0  0  0  0  0  0  0
    2.4403    0.8303    0.0000 C   0  0  0  0  0  0  0  0  0  0  0  0
    1.8759   -0.5595    0.0000 C   0  0  0  0  0  0  0  0  0  0  0  0
    0.3901   -0.7656    0.0000 N   0  0  0  0  0  0  0  0  0  0  0  0
   -0.5312    0.4181    0.0000 C   0  0  0  0  0  0  0  0  0  0  0  0
   -2.0170    0.2121    0.0000 C   0  0  0  0  0  0  0  0  0  0  0  0
   -2.5814   -1.1777    0.0000 C   0  0  0  0  0  0  0  0  0  0  0  0
   -4.0672   -1.3838    0.0000 C   0  0  0  0  0  0  0  0  0  0  0  0
   -4.9886   -0.2001    0.0000 C   0  0  0  0  0  0  0  0  0  0  0  0
   -4.4241    1.1897    0.0000 C   0  0  0  0  0  0  0  0  0  0  0  0
   -5.3455    2.3734    0.0000 C   0  0  0  0  0  0  0  0  0  0  0  0
   -6.8313    2.1673    0.0000 C   0  0  0  0  0  0  0  0  0  0  0  0
   -7.3957    0.7776    0.0000 C   0  0  0  0  0  0  0  0  0  0  0  0
   -6.4743   -0.4061    0.0000 C   0  0  0  0  0  0  0  0  0  0  0  0
   -1.6601   -2.3614    0.0000 C   0  0  0  0  0  0  0  0  0  0  0  0
   -0.1743   -2.1553    0.0000 C   0  0  0  0  0  0  0  0  0  0  0  0
  2  1  1  1
  2  3  1  0
  3  4  1  0
  4  5  2  0
  5  6  1  0
  6  7  2  0
  7  8  1  0
  8  9  2  0
  9 10  1  0
 10 11  1  0
 11 12  1  6
 12 13  1  0
 13 14  1  0
 14 15  1  0
 15 16  1  0
 16 17  1  0
 17 18  2  0
 18 19  1  0
 19 20  2  0
 20 21  1  0
 21 22  2  0
 15 23  1  0
 23 24  1  0
 11  2  1  0
 24 12  1  0
  9  4  1  0
 22 17  1  0
M  END
>  <Ki>  (458) 
60.0

>  <database>  (458) 
SRSLDB

$$$$

     RDKit          2D

 26 30  0  0  0  0  0  0  0  0999 V2000
   -5.8964    2.7674    0.0000 C   0  0  0  0  0  0  0  0  0  0  0  0
   -4.4237    2.4823    0.0000 O   0  0  0  0  0  0  0  0  0  0  0  0
   -3.9343    1.0644    0.0000 C   0  0  0  0  0  0  0  0  0  0  0  0
   -4.9175   -0.0684    0.0000 O   0  0  0  0  0  0  0  0  0  0  0  0
   -2.4616    0.7794    0.0000 C   0  0  0  0  0  0  0  0  0  0  0  0
   -2.4866   -0.7204    0.0000 C   0  0  0  0  0  0  0  0  0  0  0  0
   -3.7980   -1.4487    0.0000 C   0  0  0  0  0  0  0  0  0  0  0  0
   -3.8230   -2.9484    0.0000 C   0  0  0  0  0  0  0  0  0  0  0  0
   -2.5366   -3.7200    0.0000 C   0  0  0  0  0  0  0  0  0  0  0  0
   -1.2253   -2.9918    0.0000 C   0  0  0  0  0  0  0  0  0  0  0  0
   -1.2003   -1.4920    0.0000 C   0  0  0  0  0  0  0  0  0  0  0  0
   -1.9251    2.1802    0.0000 C   0  0  0  0  0  0  0  0  0  0  0  0
   -0.9802    1.0152    0.0000 C   0  0  0  0  0  0  0  0  0  0  0  0
    0.4205    0.4787    0.0000 C   0  0  0  0  0  0  0  0  0  0  0  0
    1.5855    1.4236    0.0000 N   0  0  0  0  0  0  0  0  0  0  0  0
    1.3497    2.9050    0.0000 C   0  0  0  0  0  0  0  0  0  0  0  0
    2.9863    0.8871    0.0000 C   0  0  0  0  0  0  0  0  0  0  0  0
    3.2221   -0.5942    0.0000 C   0  0  0  0  0  0  0  0  0  0  0  0
    4.6229   -1.1307    0.0000 C   0  0  0  0  0  0  0  0  0  0  0  0
    5.7879   -0.1858    0.0000 C   0  0  0  0  0  0  0  0  0  0  0  0
    5.5521    1.2956    0.0000 C   0  0  0  0  0  0  0  0  0  0  0  0
    2.5936   -0.1383    0.0000 C   0  0  0  0  0  0  0  0  0  0  0  0
    2.0571   -1.5391    0.0000 C   0  0  0  0  0  0  0  0  0  0  0  0
    3.4579   -2.0756    0.0000 C   0  0  0  0  0  0  0  0  0  0  0  0
    1.8213   -0.0577    0.0000 C   0  0  0  0  0  0  0  0  0  0  0  0
    4.1513    1.8320    0.0000 C   0  0  0  0  0  0  0  0  0  0  0  0
  1  2  1  0
  2  3  1  0
  3  4  2  0
  3  5  1  0
  5  6  1  0
  6  7  2  0
  7  8  1  0
  8  9  2  0
  9 10  1  0
 10 11  2  0
  5 12  1  0
 12 13  1  0
 13 14  1  0
 14 15  1  0
 15 16  1  0
 15 17  1  0
 17 18  1  0
 18 19  1  0
 19 20  1  0
 20 21  1  0
 21 22  1  0
 22 23  1  0
 23 24  1  0
 23 25  1  0
 21 26  1  0
 13  5  1  0
 25 17  1  0
 11  6  1  0
 26 17  1  0
 24 19  1  0
M  END
>  <Ki>  (459) 
11.2

>  <database>  (459) 
SRSLDB

$$$$

     RDKit          2D

 25 28  0  0  0  0  0  0  0  0999 V2000
   -5.0909   -2.3885    0.0000 C   0  0  0  0  0  0  0  0  0  0  0  0
   -5.8137   -1.0741    0.0000 C   0  0  0  0  0  0  0  0  0  0  0  0
   -7.3133   -1.0428    0.0000 C   0  0  0  0  0  0  0  0  0  0  0  0
   -8.0361    0.2716    0.0000 C   0  0  0  0  0  0  0  0  0  0  0  0
   -7.2592    1.5547    0.0000 C   0  0  0  0  0  0  0  0  0  0  0  0
   -5.7595    1.5234    0.0000 C   0  0  0  0  0  0  0  0  0  0  0  0
   -5.0367    0.2090    0.0000 C   0  0  0  0  0  0  0  0  0  0  0  0
   -3.5371    0.1777    0.0000 C   0  0  0  0  0  0  0  0  0  0  0  0
   -2.8143   -1.1367    0.0000 C   0  0  0  0  0  0  0  0  0  0  0  0
   -1.3146   -1.1680    0.0000 C   0  0  0  0  0  0  0  0  0  0  0  0
   -0.5377    0.1152    0.0000 C   0  0  0  0  0  0  0  0  0  0  0  0
    0.9620    0.0839    0.0000 N   0  0  0  0  0  0  0  0  0  0  0  0
    1.6847   -1.2305    0.0000 C   0  0  0  0  0  0  0  0  0  0  0  0
    3.1844   -1.2618    0.0000 C   0  0  0  0  0  0  0  0  0  0  0  0
    3.9613    0.0213    0.0000 N   0  0  0  0  0  0  0  0  0  0  0  0
    5.4610   -0.0100    0.0000 C   0  0  0  0  0  0  0  0  0  0  0  0
    6.1837   -1.3244    0.0000 C   0  0  0  0  0  0  0  0  0  0  0  0
    7.6834   -1.3556    0.0000 C   0  0  0  0  0  0  0  0  0  0  0  0
    8.4603   -0.0725    0.0000 C   0  0  0  0  0  0  0  0  0  0  0  0
    7.7376    1.2419    0.0000 C   0  0  0  0  0  0  0  0  0  0  0  0
    6.2379    1.2731    0.0000 N   0  0  0  0  0  0  0  0  0  0  0  0
    3.2386    1.3357    0.0000 C   0  0  0  0  0  0  0  0  0  0  0  0
    1.7389    1.3670    0.0000 C   0  0  0  0  0  0  0  0  0  0  0  0
   -1.2605    1.4296    0.0000 C   0  0  0  0  0  0  0  0  0  0  0  0
   -2.7601    1.4608    0.0000 C   0  0  0  0  0  0  0  0  0  0  0  0
  1  2  1  0
  2  3  2  0
  3  4  1  0
  4  5  2  0
  5  6  1  0
  6  7  2  0
  8  7  1  6
  8  9  1  0
  9 10  1  0
 10 11  1  0
 11 12  1  1
 12 13  1  0
 13 14  1  0
 14 15  1  0
 15 16  1  0
 16 17  2  0
 17 18  1  0
 18 19  2  0
 19 20  1  0
 20 21  2  0
 15 22  1  0
 22 23  1  0
 11 24  1  0
 24 25  1  0
  7  2  1  0
 25  8  1  0
 23 12  1  0
 21 16  1  0
M  END
>  <ChemBL_ID>  (460) 
CHEMBL457508

>  <Ki>  (460) 
29.6

>  <database>  (460) 
SRSLDB

$$$$

     RDKit          2D

 27 30  0  0  0  0  0  0  0  0999 V2000
   -9.2019   -3.4247    0.0000 F   0  0  0  0  0  0  0  0  0  0  0  0
   -8.5043   -2.0968    0.0000 C   0  0  0  0  0  0  0  0  0  0  0  0
   -9.3055   -0.8287    0.0000 C   0  0  0  0  0  0  0  0  0  0  0  0
   -8.6079    0.4992    0.0000 C   0  0  0  0  0  0  0  0  0  0  0  0
   -7.1091    0.5590    0.0000 C   0  0  0  0  0  0  0  0  0  0  0  0
   -6.1506    1.7128    0.0000 N   0  0  0  0  0  0  0  0  0  0  0  0
   -4.7570    1.1578    0.0000 C   0  0  0  0  0  0  0  0  0  0  0  0
   -3.4889    1.9590    0.0000 S   0  0  0  0  0  0  0  0  0  0  0  0
   -2.1610    1.2614    0.0000 C   0  0  0  0  0  0  0  0  0  0  0  0
   -0.8929    2.0625    0.0000 C   0  0  0  0  0  0  0  0  0  0  0  0
    0.4350    1.3649    0.0000 C   0  0  0  0  0  0  0  0  0  0  0  0
    1.7031    2.1661    0.0000 C   0  0  0  0  0  0  0  0  0  0  0  0
    3.0310    1.4685    0.0000 N   0  0  0  0  0  0  0  0  0  0  0  0
    3.0908   -0.0303    0.0000 C   0  0  0  0  0  0  0  0  0  0  0  0
    4.4187   -0.7280    0.0000 C   0  0  0  0  0  0  0  0  0  0  0  0
    5.6868    0.0732    0.0000 N   0  0  0  0  0  0  0  0  0  0  0  0
    7.0147   -0.6244    0.0000 C   0  0  0  0  0  0  0  0  0  0  0  0
    7.0745   -2.1232    0.0000 C   0  0  0  0  0  0  0  0  0  0  0  0
    8.4024   -2.8208    0.0000 C   0  0  0  0  0  0  0  0  0  0  0  0
    9.6705   -2.0197    0.0000 C   0  0  0  0  0  0  0  0  0  0  0  0
    9.6107   -0.5209    0.0000 C   0  0  0  0  0  0  0  0  0  0  0  0
    8.2828    0.1768    0.0000 C   0  0  0  0  0  0  0  0  0  0  0  0
    5.6270    1.5720    0.0000 C   0  0  0  0  0  0  0  0  0  0  0  0
    4.2991    2.2697    0.0000 C   0  0  0  0  0  0  0  0  0  0  0  0
   -4.8543   -0.3390    0.0000 S   0  0  0  0  0  0  0  0  0  0  0  0
   -6.3079   -0.7091    0.0000 C   0  0  0  0  0  0  0  0  0  0  0  0
   -7.0055   -2.0370    0.0000 C   0  0  0  0  0  0  0  0  0  0  0  0
  1  2  1  0
  2  3  2  0
  3  4  1  0
  4  5  2  0
  5  6  1  0
  6  7  2  0
  7  8  1  0
  8  9  1  0
  9 10  1  0
 10 11  1  0
 11 12  1  0
 12 13  1  0
 13 14  1  0
 14 15  1  0
 15 16  1  0
 16 17  1  0
 17 18  1  0
 18 19  1  0
 19 20  1  0
 20 21  1  0
 21 22  1  0
 16 23  1  0
 23 24  1  0
  7 25  1  0
 25 26  1  0
 26 27  2  0
 27  2  1  0
 26  5  1  0
 24 13  1  0
 22 17  1  0
M  END
>  <Ki>  (461) 
13.8

>  <database>  (461) 
SRSLDB

$$$$

     RDKit          2D

 28 31  0  0  0  0  0  0  0  0999 V2000
    1.7110   -4.1799    0.0000 O   0  0  0  0  0  0  0  0  0  0  0  0
    0.3888   -3.4715    0.0000 C   0  0  0  0  0  0  0  0  0  0  0  0
   -0.8857   -4.2624    0.0000 C   0  0  0  0  0  0  0  0  0  0  0  0
   -2.2079   -3.5541    0.0000 C   0  0  0  0  0  0  0  0  0  0  0  0
   -2.2556   -2.0548    0.0000 C   0  0  0  0  0  0  0  0  0  0  0  0
   -3.5778   -1.3465    0.0000 O   0  0  0  0  0  0  0  0  0  0  0  0
   -3.6254    0.1528    0.0000 C   0  0  0  0  0  0  0  0  0  0  0  0
   -4.9476    0.8611    0.0000 C   0  0  0  0  0  0  0  0  0  0  0  0
   -4.9953    2.3604    0.0000 C   0  0  0  0  0  0  0  0  0  0  0  0
   -6.3175    3.0687    0.0000 C   0  0  0  0  0  0  0  0  0  0  0  0
   -7.5921    2.2778    0.0000 C   0  0  0  0  0  0  0  0  0  0  0  0
   -8.9143    2.9862    0.0000 F   0  0  0  0  0  0  0  0  0  0  0  0
   -7.5444    0.7786    0.0000 C   0  0  0  0  0  0  0  0  0  0  0  0
   -6.2222    0.0702    0.0000 C   0  0  0  0  0  0  0  0  0  0  0  0
   -0.9810   -1.2639    0.0000 C   0  0  0  0  0  0  0  0  0  0  0  0
    0.3412   -1.9723    0.0000 C   0  0  0  0  0  0  0  0  0  0  0  0
    1.6157   -1.1814    0.0000 N   0  0  0  0  0  0  0  0  0  0  0  0
    2.9380   -1.8898    0.0000 C   0  0  0  0  0  0  0  0  0  0  0  0
    4.2125   -1.0989    0.0000 C   0  0  0  0  0  0  0  0  0  0  0  0
    4.1649    0.4004    0.0000 C   0  0  0  0  0  0  0  0  0  0  0  0
    5.4394    1.1913    0.0000 N   0  0  0  0  0  0  0  0  0  0  0  0
    6.7616    0.4829    0.0000 C   0  0  0  0  0  0  0  0  0  0  0  0
    8.0362    1.2738    0.0000 C   0  0  0  0  0  0  0  0  0  0  0  0
    7.9885    2.7730    0.0000 C   0  0  0  0  0  0  0  0  0  0  0  0
    6.6663    3.4814    0.0000 C   0  0  0  0  0  0  0  0  0  0  0  0
    5.3918    2.6905    0.0000 C   0  0  0  0  0  0  0  0  0  0  0  0
    2.8427    1.1087    0.0000 C   0  0  0  0  0  0  0  0  0  0  0  0
    1.5681    0.3178    0.0000 C   0  0  0  0  0  0  0  0  0  0  0  0
  2  1  1  6
  2  3  1  0
  3  4  1  0
  4  5  1  0
  5  6  1  6
  6  7  1  0
  7  8  1  0
  8  9  2  0
  9 10  1  0
 10 11  2  0
 11 12  1  0
 11 13  1  0
 13 14  2  0
  5 15  1  0
 15 16  1  0
 16 17  1  1
 17 18  1  0
 18 19  1  0
 19 20  1  0
 20 21  1  0
 21 22  1  0
 22 23  1  0
 23 24  1  0
 24 25  1  0
 25 26  1  0
 20 27  1  0
 27 28  1  0
 16  2  1  0
 28 17  1  0
 14  8  1  0
 26 21  1  0
M  END
>  <Ki>  (462) 
543.0

>  <database>  (462) 
SRSLDB

$$$$

     RDKit          2D

 30 33  0  0  0  0  0  0  0  0999 V2000
   -5.7170   -3.0970    0.0000 C   0  0  0  0  0  0  0  0  0  0  0  0
   -4.3401   -2.5020    0.0000 O   0  0  0  0  0  0  0  0  0  0  0  0
   -4.1669   -1.0120    0.0000 C   0  0  0  0  0  0  0  0  0  0  0  0
   -5.3707   -0.1171    0.0000 C   0  0  0  0  0  0  0  0  0  0  0  0
   -5.1976    1.3729    0.0000 C   0  0  0  0  0  0  0  0  0  0  0  0
   -3.8206    1.9679    0.0000 C   0  0  0  0  0  0  0  0  0  0  0  0
   -3.6475    3.4579    0.0000 C   0  0  0  0  0  0  0  0  0  0  0  0
   -2.6169    1.0730    0.0000 C   0  0  0  0  0  0  0  0  0  0  0  0
   -2.7900   -0.4170    0.0000 C   0  0  0  0  0  0  0  0  0  0  0  0
   -1.5862   -1.3119    0.0000 N   0  0  0  0  0  0  0  0  0  0  0  0
   -0.2093   -0.7169    0.0000 C   0  0  0  0  0  0  0  0  0  0  0  0
   -0.0361    0.7731    0.0000 O   0  0  0  0  0  0  0  0  0  0  0  0
    0.9945   -1.6118    0.0000 O   0  0  0  0  0  0  0  0  0  0  0  0
    2.3714   -1.0167    0.0000 C   0  0  0  0  0  0  0  0  0  0  0  0
    3.5752   -1.9117    0.0000 C   0  0  0  0  0  0  0  0  0  0  0  0
    4.9521   -1.3166    0.0000 C   0  0  0  0  0  0  0  0  0  0  0  0
    6.3291   -0.7216    0.0000 C   0  0  0  0  0  0  0  0  0  0  0  0
    6.5022    0.7684    0.0000 C   0  0  0  0  0  0  0  0  0  0  0  0
    5.2984    1.6633    0.0000 C   0  0  0  0  0  0  0  0  0  0  0  0
    3.9215    1.0683    0.0000 C   0  0  0  0  0  0  0  0  0  0  0  0
    2.5446    0.4732    0.0000 C   0  0  0  0  0  0  0  0  0  0  0  0
    3.7484   -0.4217    0.0000 N   0  0  0  0  0  0  0  0  0  0  0  0
    2.3714   -1.0167    0.0000 C   0  0  0  0  0  0  0  0  0  0  0  0
    1.1676   -0.1218    0.0000 C   0  0  0  0  0  0  0  0  0  0  0  0
    1.3408    1.3682    0.0000 C   0  0  0  0  0  0  0  0  0  0  0  0
    0.1370    2.2631    0.0000 C   0  0  0  0  0  0  0  0  0  0  0  0
   -1.2399    1.6680    0.0000 C   0  0  0  0  0  0  0  0  0  0  0  0
   -1.4131    0.1781    0.0000 C   0  0  0  0  0  0  0  0  0  0  0  0
   -2.8931   -0.0661    0.0000 F   0  0  0  0  0  0  0  0  0  0  0  0
   -0.2093   -0.7169    0.0000 C   0  0  0  0  0  0  0  0  0  0  0  0
  1  2  1  0
  2  3  1  0
  3  4  2  0
  4  5  1  0
  5  6  2  0
  6  7  1  0
  6  8  1  0
  8  9  2  0
  9 10  1  0
 10 11  1  0
 11 12  2  0
 11 13  1  0
 13 14  1  0
 14 15  1  0
 15 16  1  0
 16 17  1  0
 17 18  1  0
 18 19  1  0
 19 20  1  0
 20 21  1  0
 20 22  1  0
 22 23  1  0
 23 24  1  0
 24 25  2  0
 25 26  1  0
 26 27  2  0
 27 28  1  0
 28 29  1  0
 28 30  2  0
  9  3  1  0
 21 14  1  0
 30 24  1  0
 22 16  1  0
M  END
>  <Ki>  (463) 
318.0

>  <database>  (463) 
SRSLDB

$$$$

     RDKit          2D

 29 32  0  0  0  0  0  0  0  0999 V2000
    6.4271   -3.7156    0.0000 O   0  0  0  0  0  0  0  0  0  0  0  0
    6.7153   -2.2435    0.0000 C   0  0  0  0  0  0  0  0  0  0  0  0
    8.0756   -1.6115    0.0000 O   0  0  0  0  0  0  0  0  0  0  0  0
    7.8948   -0.1224    0.0000 C   0  0  0  0  0  0  0  0  0  0  0  0
    8.8804    1.0083    0.0000 C   0  0  0  0  0  0  0  0  0  0  0  0
    8.3940    2.4273    0.0000 C   0  0  0  0  0  0  0  0  0  0  0  0
    6.9220    2.7155    0.0000 C   0  0  0  0  0  0  0  0  0  0  0  0
    5.9363    1.5848    0.0000 C   0  0  0  0  0  0  0  0  0  0  0  0
    6.4228    0.1658    0.0000 C   0  0  0  0  0  0  0  0  0  0  0  0
    5.6938   -1.1451    0.0000 N   0  0  0  0  0  0  0  0  0  0  0  0
    4.2047   -1.3259    0.0000 C   0  0  0  0  0  0  0  0  0  0  0  0
    3.3036   -0.1267    0.0000 C   0  0  0  0  0  0  0  0  0  0  0  0
    1.8145   -0.3075    0.0000 C   0  0  0  0  0  0  0  0  0  0  0  0
    0.9135    0.8917    0.0000 C   0  0  0  0  0  0  0  0  0  0  0  0
   -0.5756    0.7109    0.0000 N   0  0  0  0  0  0  0  0  0  0  0  0
   -1.4767    1.9101    0.0000 C   0  0  0  0  0  0  0  0  0  0  0  0
   -2.9658    1.7293    0.0000 C   0  0  0  0  0  0  0  0  0  0  0  0
   -3.5537    0.3493    0.0000 N   0  0  0  0  0  0  0  0  0  0  0  0
   -5.0428    0.1685    0.0000 C   0  0  0  0  0  0  0  0  0  0  0  0
   -5.9439    1.3677    0.0000 C   0  0  0  0  0  0  0  0  0  0  0  0
   -7.4330    1.1869    0.0000 C   0  0  0  0  0  0  0  0  0  0  0  0
   -8.0209   -0.1930    0.0000 C   0  0  0  0  0  0  0  0  0  0  0  0
   -9.5100   -0.3738    0.0000 N   0  0  0  0  0  4  0  0  0  0  0  0
  -10.0980   -1.7538    0.0000 O   0  0  0  0  0  0  0  0  0  0  0  0
  -10.4111    0.8254    0.0000 O   0  0  0  0  0  1  0  0  0  0  0  0
   -7.1198   -1.3922    0.0000 C   0  0  0  0  0  0  0  0  0  0  0  0
   -5.6308   -1.2114    0.0000 C   0  0  0  0  0  0  0  0  0  0  0  0
   -2.6526   -0.8499    0.0000 C   0  0  0  0  0  0  0  0  0  0  0  0
   -1.1636   -0.6691    0.0000 C   0  0  0  0  0  0  0  0  0  0  0  0
  1  2  2  0
  2  3  1  0
  3  4  1  0
  4  5  2  0
  5  6  1  0
  6  7  2  0
  7  8  1  0
  8  9  2  0
  9 10  1  0
 10 11  1  0
 11 12  1  0
 12 13  1  0
 13 14  1  0
 14 15  1  0
 15 16  1  0
 16 17  1  0
 17 18  1  0
 18 19  1  0
 19 20  2  0
 20 21  1  0
 21 22  2  0
 22 23  1  0
 23 24  2  0
 23 25  1  0
 22 26  1  0
 26 27  2  0
 18 28  1  0
 28 29  1  0
 10  2  1  0
 29 15  1  0
  9  4  1  0
 27 19  1  0
M  CHG  2  23   1  25  -1
M  END
>  <Ki>  (464) 
256.0

>  <database>  (464) 
SRSLDB

$$$$

     RDKit          2D

 20 22  0  0  0  0  0  0  0  0999 V2000
   -4.0412   -2.2203    0.0000 C   0  0  0  0  0  0  0  0  0  0  0  0
   -4.7420   -0.8940    0.0000 C   0  0  0  0  0  0  0  0  0  0  0  0
   -5.9264   -1.8145    0.0000 C   0  0  0  0  0  0  0  0  0  0  0  0
   -5.8542    0.1125    0.0000 C   0  0  0  0  0  0  0  0  0  0  0  0
   -5.5385    1.5789    0.0000 C   0  0  0  0  0  0  0  0  0  0  0  0
   -4.1107    2.0388    0.0000 C   0  0  0  0  0  0  0  0  0  0  0  0
   -2.9986    1.0322    0.0000 N   0  0  0  0  0  0  0  0  0  0  0  0
   -1.5708    1.4921    0.0000 C   0  0  0  0  0  0  0  0  0  0  0  0
   -0.4587    0.4855    0.0000 C   0  0  0  0  0  0  0  0  0  0  0  0
    0.9691    0.9453    0.0000 C   0  0  0  0  0  0  0  0  0  0  0  0
    2.0812   -0.0612    0.0000 C   0  0  0  0  0  0  0  0  0  0  0  0
    1.9206   -1.5526    0.0000 C   0  0  0  0  0  0  0  0  0  0  0  0
    3.2893   -2.1663    0.0000 C   0  0  0  0  0  0  0  0  0  0  0  0
    4.2959   -1.0541    0.0000 C   0  0  0  0  0  0  0  0  0  0  0  0
    5.7959   -1.0580    0.0000 C   0  0  0  0  0  0  0  0  0  0  0  0
    6.5492    0.2391    0.0000 C   0  0  0  0  0  0  0  0  0  0  0  0
    5.8026    1.5401    0.0000 C   0  0  0  0  0  0  0  0  0  0  0  0
    4.3026    1.5439    0.0000 C   0  0  0  0  0  0  0  0  0  0  0  0
    3.5492    0.2468    0.0000 C   0  0  0  0  0  0  0  0  0  0  0  0
   -3.3143   -0.4342    0.0000 C   0  0  0  0  0  0  0  0  0  0  0  0
  1  2  1  0
  2  3  1  0
  2  4  1  0
  4  5  1  0
  5  6  1  0
  6  7  1  0
  7  8  1  0
  8  9  1  0
  9 10  1  0
 10 11  1  0
 11 12  1  0
 12 13  1  0
 13 14  1  0
 14 15  2  0
 15 16  1  0
 16 17  2  0
 17 18  1  0
 18 19  2  0
  7 20  1  0
 20  2  1  0
 19 11  1  0
 19 14  1  0
M  END
>  <ChemBL_ID>  (465) 
CHEMBL129092

>  <Ki>  (465) 
26.1

>  <database>  (465) 
SRSLDB

$$$$

     RDKit          2D

 19 21  0  0  0  0  0  0  0  0999 V2000
   -2.9149   -2.3747    0.0000 O   0  0  0  0  0  0  0  0  0  0  0  0
   -3.6254   -1.0537    0.0000 C   0  0  0  0  0  0  0  0  0  0  0  0
   -5.1248   -1.0086    0.0000 C   0  0  0  0  0  0  0  0  0  0  0  0
   -5.8353    0.3124    0.0000 C   0  0  0  0  0  0  0  0  0  0  0  0
   -5.0466    1.5883    0.0000 C   0  0  0  0  0  0  0  0  0  0  0  0
   -3.5473    1.5432    0.0000 C   0  0  0  0  0  0  0  0  0  0  0  0
   -2.8367    0.2222    0.0000 C   0  0  0  0  0  0  0  0  0  0  0  0
   -1.3374    0.1771    0.0000 N   0  0  0  0  0  0  0  0  0  0  0  0
   -0.6268   -1.1440    0.0000 C   0  0  0  0  0  0  0  0  0  0  0  0
    0.8725   -1.1891    0.0000 C   0  0  0  0  0  0  0  0  0  0  0  0
    1.6613    0.0868    0.0000 C   0  0  0  0  0  0  0  0  0  0  0  0
    3.1606    0.0417    0.0000 C   0  0  0  0  0  0  0  0  0  0  0  0
    3.8712   -1.2793    0.0000 C   0  0  0  0  0  0  0  0  0  0  0  0
    5.3705   -1.3245    0.0000 C   0  0  0  0  0  0  0  0  0  0  0  0
    6.1592   -0.0486    0.0000 N   0  0  0  0  0  0  0  0  0  0  0  0
    5.4486    1.2725    0.0000 C   0  0  0  0  0  0  0  0  0  0  0  0
    3.9493    1.3176    0.0000 C   0  0  0  0  0  0  0  0  0  0  0  0
    0.9507    1.4078    0.0000 C   0  0  0  0  0  0  0  0  0  0  0  0
   -0.5486    1.4529    0.0000 C   0  0  0  0  0  0  0  0  0  0  0  0
  2  1  1  6
  2  3  1  0
  3  4  1  0
  4  5  1  0
  5  6  1  0
  6  7  1  0
  7  8  1  1
  8  9  1  0
  9 10  1  0
 10 11  1  0
 11 12  1  0
 12 13  2  0
 13 14  1  0
 14 15  2  0
 15 16  1  0
 16 17  2  0
 11 18  1  0
 18 19  1  0
  7  2  1  0
 19  8  1  0
 17 12  1  0
M  END
>  <Ki>  (466) 
3317.0

>  <database>  (466) 
SRSLDB

$$$$

     RDKit          2D

 24 26  0  0  0  0  0  0  0  0999 V2000
   -6.3465   -3.9272    0.0000 C   0  0  0  0  0  0  0  0  0  0  0  0
   -5.0120   -3.2422    0.0000 O   0  0  0  0  0  0  0  0  0  0  0  0
   -4.9381   -1.7440    0.0000 C   0  0  0  0  0  0  0  0  0  0  0  0
   -6.1985   -0.9309    0.0000 C   0  0  0  0  0  0  0  0  0  0  0  0
   -6.1246    0.5673    0.0000 C   0  0  0  0  0  0  0  0  0  0  0  0
   -4.7901    1.2523    0.0000 C   0  0  0  0  0  0  0  0  0  0  0  0
   -3.5297    0.4392    0.0000 C   0  0  0  0  0  0  0  0  0  0  0  0
   -3.6036   -1.0590    0.0000 C   0  0  0  0  0  0  0  0  0  0  0  0
   -2.1952    1.1242    0.0000 C   0  0  0  0  0  0  0  0  0  0  0  0
   -0.9348    0.3111    0.0000 C   0  0  0  0  0  0  0  0  0  0  0  0
    0.3997    0.9961    0.0000 C   0  0  0  0  0  0  0  0  0  0  0  0
    1.6602    0.1830    0.0000 C   0  0  0  0  0  0  0  0  0  0  0  0
    2.9946    0.8680    0.0000 C   0  0  0  0  0  0  0  0  0  0  0  0
    4.2551    0.0549    0.0000 N   0  0  0  0  0  0  0  0  0  0  0  0
    4.1811   -1.4433    0.0000 C   0  0  0  0  0  0  0  0  0  0  0  0
    5.4416   -2.2564    0.0000 C   0  0  0  0  0  0  0  0  0  0  0  0
    6.7760   -1.5714    0.0000 C   0  0  0  0  0  0  0  0  0  0  0  0
    6.8500   -0.0732    0.0000 C   0  0  0  0  0  0  0  0  0  0  0  0
    7.4319    1.3093    0.0000 C   0  0  0  0  0  0  0  0  0  0  0  0
    8.3126   -0.4062    0.0000 C   0  0  0  0  0  0  0  0  0  0  0  0
    5.5895    0.7399    0.0000 C   0  0  0  0  0  0  0  0  0  0  0  0
   -2.1213    2.6224    0.0000 C   0  0  0  0  0  0  0  0  0  0  0  0
   -3.3818    3.4355    0.0000 C   0  0  0  0  0  0  0  0  0  0  0  0
   -4.7162    2.7505    0.0000 C   0  0  0  0  0  0  0  0  0  0  0  0
  1  2  1  0
  2  3  1  0
  3  4  2  0
  4  5  1  0
  5  6  2  0
  6  7  1  0
  7  8  2  0
  7  9  1  0
  9 10  1  0
 10 11  1  0
 11 12  1  0
 12 13  1  0
 13 14  1  0
 14 15  1  0
 15 16  1  0
 16 17  1  0
 17 18  1  0
 18 19  1  0
 18 20  1  0
 18 21  1  0
  9 22  1  0
 22 23  1  0
 23 24  1  0
  8  3  1  0
 21 14  1  0
 24  6  1  0
M  END
>  <ChemBL_ID>  (467) 
CHEMBL128997

>  <Ki>  (467) 
160.0

>  <database>  (467) 
SRSLDB

$$$$

     RDKit          2D

 39 44  0  0  0  0  0  0  0  0999 V2000
    4.1301   -3.8867    0.0000 C   0  0  0  0  0  0  0  0  0  0  0  0
    3.8346   -2.4161    0.0000 C   0  0  0  0  0  0  0  0  0  0  0  0
    2.4711   -1.7908    0.0000 N   0  0  0  0  0  0  0  0  0  0  0  0
    2.6444   -0.3008    0.0000 N   0  0  0  0  0  0  0  0  0  0  0  0
    1.5409    0.7152    0.0000 C   0  0  0  0  0  0  0  0  0  0  0  0
    1.8691    2.1788    0.0000 C   0  0  0  0  0  0  0  0  0  0  0  0
    0.7655    3.1948    0.0000 C   0  0  0  0  0  0  0  0  0  0  0  0
   -0.6661    2.7472    0.0000 C   0  0  0  0  0  0  0  0  0  0  0  0
   -1.7696    3.7632    0.0000 C   0  0  0  0  0  0  0  0  0  0  0  0
   -1.4415    5.2269    0.0000 N   0  0  0  0  0  0  0  0  0  0  0  0
   -3.2012    3.3155    0.0000 O   0  0  0  0  0  0  0  0  0  0  0  0
   -0.9942    1.2835    0.0000 C   0  0  0  0  0  0  0  0  0  0  0  0
   -2.4259    0.8358    0.0000 N   0  0  0  0  0  0  0  0  0  0  0  0
   -2.7540   -0.6278    0.0000 C   0  0  0  0  0  0  0  0  0  0  0  0
   -4.1856   -1.0755    0.0000 C   0  0  0  0  0  0  0  0  0  0  0  0
   -4.5138   -2.5392    0.0000 C   0  0  0  0  0  0  0  0  0  0  0  0
   -4.8419   -4.0028    0.0000 C   0  0  0  0  0  0  0  0  0  0  0  0
   -3.7384   -5.0188    0.0000 C   0  0  0  0  0  0  0  0  0  0  0  0
   -2.3067   -4.5712    0.0000 C   0  0  0  0  0  0  0  0  0  0  0  0
   -1.9786   -3.1075    0.0000 C   0  0  0  0  0  0  0  0  0  0  0  0
   -1.6505   -1.6438    0.0000 C   0  0  0  0  0  0  0  0  0  0  0  0
   -3.0821   -2.0915    0.0000 N   0  0  0  0  0  0  0  0  0  0  0  0
   -2.7540   -0.6278    0.0000 C   0  0  0  0  0  0  0  0  0  0  0  0
   -3.8575    0.3882    0.0000 C   0  0  0  0  0  0  0  0  0  0  0  0
   -3.5294    1.8518    0.0000 C   0  0  0  0  0  0  0  0  0  0  0  0
   -4.6329    2.8679    0.0000 C   0  0  0  0  0  0  0  0  0  0  0  0
   -6.0645    2.4202    0.0000 C   0  0  0  0  0  0  0  0  0  0  0  0
   -6.3927    0.9565    0.0000 C   0  0  0  0  0  0  0  0  0  0  0  0
   -5.2891   -0.0595    0.0000 C   0  0  0  0  0  0  0  0  0  0  0  0
    0.1093    0.2675    0.0000 C   0  0  0  0  0  0  0  0  0  0  0  0
    4.1150   -0.0053    0.0000 C   0  0  0  0  0  0  0  0  0  0  0  0
    4.8506   -1.3126    0.0000 C   0  0  0  0  0  0  0  0  0  0  0  0
    6.3505   -1.3292    0.0000 C   0  0  0  0  0  0  0  0  0  0  0  0
    7.0860   -2.6365    0.0000 O   0  0  0  0  0  0  0  0  0  0  0  0
    7.1148   -0.0386    0.0000 C   0  0  0  0  0  0  0  0  0  0  0  0
    6.3793    1.2687    0.0000 C   0  0  0  0  0  0  0  0  0  0  0  0
    6.1352    2.7487    0.0000 C   0  0  0  0  0  0  0  0  0  0  0  0
    7.7944    1.7661    0.0000 C   0  0  0  0  0  0  0  0  0  0  0  0
    4.8794    1.2854    0.0000 C   0  0  0  0  0  0  0  0  0  0  0  0
  1  2  1  0
  2  3  2  0
  3  4  1  0
  4  5  1  0
  5  6  2  0
  6  7  1  0
  7  8  2  0
  8  9  1  0
  9 10  1  0
  9 11  2  0
  8 12  1  0
 12 13  1  0
 13 14  1  0
 14 15  1  0
 15 16  1  0
 16 17  1  0
 17 18  1  0
 18 19  1  0
 19 20  1  0
 20 21  1  0
 20 22  1  0
 22 23  1  0
 23 24  1  0
 24 25  2  0
 25 26  1  0
 26 27  2  0
 27 28  1  0
 28 29  2  0
 12 30  2  0
  4 31  1  0
 31 32  2  0
 32 33  1  0
 33 34  2  0
 33 35  1  0
 35 36  1  0
 36 37  1  0
 36 38  1  0
 36 39  1  0
 32  2  1  0
 30  5  1  0
 39 31  1  0
 21 14  1  0
 29 24  1  0
 22 16  1  0
M  END
>  <Ki>  (468) 
11350.0

>  <database>  (468) 
SRSLDB

$$$$

     RDKit          2D

 23 25  0  0  0  0  0  0  0  0999 V2000
   -5.4342   -2.2744    0.0000 C   0  0  0  0  0  0  0  0  0  0  0  0
   -6.1881   -0.9776    0.0000 C   0  0  0  0  0  0  0  0  0  0  0  0
   -7.3343   -1.9452    0.0000 C   0  0  0  0  0  0  0  0  0  0  0  0
   -7.3401   -0.0169    0.0000 C   0  0  0  0  0  0  0  0  0  0  0  0
   -7.0840    1.4611    0.0000 C   0  0  0  0  0  0  0  0  0  0  0  0
   -5.6760    1.9783    0.0000 C   0  0  0  0  0  0  0  0  0  0  0  0
   -4.5240    1.0176    0.0000 N   0  0  0  0  0  0  0  0  0  0  0  0
   -3.1160    1.5348    0.0000 C   0  0  0  0  0  0  0  0  0  0  0  0
   -1.9641    0.5741    0.0000 C   0  0  0  0  0  0  0  0  0  0  0  0
   -0.5561    1.0913    0.0000 C   0  0  0  0  0  0  0  0  0  0  0  0
    0.5958    0.1306    0.0000 C   0  0  0  0  0  0  0  0  0  0  0  0
    2.0038    0.6478    0.0000 C   0  0  0  0  0  0  0  0  0  0  0  0
    3.1558   -0.3130    0.0000 C   0  0  0  0  0  0  0  0  0  0  0  0
    2.8997   -1.7909    0.0000 C   0  0  0  0  0  0  0  0  0  0  0  0
    4.0516   -2.7517    0.0000 C   0  0  0  0  0  0  0  0  0  0  0  0
    5.4596   -2.2345    0.0000 C   0  0  0  0  0  0  0  0  0  0  0  0
    5.7157   -0.7565    0.0000 C   0  0  0  0  0  0  0  0  0  0  0  0
    7.1237   -0.2392    0.0000 C   0  0  0  0  0  0  0  0  0  0  0  0
    7.3798    1.2387    0.0000 C   0  0  0  0  0  0  0  0  0  0  0  0
    6.2278    2.1995    0.0000 C   0  0  0  0  0  0  0  0  0  0  0  0
    4.8198    1.6823    0.0000 C   0  0  0  0  0  0  0  0  0  0  0  0
    4.5638    0.2043    0.0000 C   0  0  0  0  0  0  0  0  0  0  0  0
   -4.7801   -0.4604    0.0000 C   0  0  0  0  0  0  0  0  0  0  0  0
  1  2  1  0
  2  3  1  0
  2  4  1  0
  4  5  1  0
  5  6  1  0
  6  7  1  0
  7  8  1  0
  8  9  1  0
  9 10  1  0
 10 11  1  0
 11 12  1  0
 12 13  1  0
 13 14  1  0
 14 15  1  0
 15 16  1  0
 16 17  1  0
 17 18  2  0
 18 19  1  0
 19 20  2  0
 20 21  1  0
 21 22  2  0
  7 23  1  0
 23  2  1  0
 22 13  1  0
 22 17  1  0
M  END
>  <ChemBL_ID>  (469) 
CHEMBL128125

>  <Ki>  (469) 
318.0

>  <database>  (469) 
SRSLDB

$$$$

     RDKit          2D

 22 24  0  0  0  0  0  0  0  0999 V2000
    8.0510   -1.7184    0.0000 C   0  0  0  0  0  0  0  0  0  0  0  0
    7.4061   -0.3641    0.0000 O   0  0  0  0  0  0  0  0  0  0  0  0
    5.9108   -0.2454    0.0000 C   0  0  0  0  0  0  0  0  0  0  0  0
    5.0604   -1.4811    0.0000 C   0  0  0  0  0  0  0  0  0  0  0  0
    3.5651   -1.3624    0.0000 C   0  0  0  0  0  0  0  0  0  0  0  0
    2.9202   -0.0081    0.0000 C   0  0  0  0  0  0  0  0  0  0  0  0
    3.7706    1.2276    0.0000 C   0  0  0  0  0  0  0  0  0  0  0  0
    5.2659    1.1089    0.0000 C   0  0  0  0  0  0  0  0  0  0  0  0
    2.8583    2.4182    0.0000 C   0  0  0  0  0  0  0  0  0  0  0  0
    1.4440    1.9184    0.0000 C   0  0  0  0  0  0  0  0  0  0  0  0
    1.4823    0.4189    0.0000 C   0  0  0  0  0  0  0  0  0  0  0  0
    0.2916   -0.4934    0.0000 C   0  0  0  0  0  0  0  0  0  0  0  0
   -1.0938    0.0815    0.0000 C   0  0  0  0  0  0  0  0  0  0  0  0
   -2.2845   -0.8308    0.0000 C   0  0  0  0  0  0  0  0  0  0  0  0
   -3.6699   -0.2559    0.0000 N   0  0  0  0  0  0  0  0  0  0  0  0
   -3.8647    1.2314    0.0000 C   0  0  0  0  0  0  0  0  0  0  0  0
   -5.2501    1.8064    0.0000 C   0  0  0  0  0  0  0  0  0  0  0  0
   -6.4408    0.8940    0.0000 C   0  0  0  0  0  0  0  0  0  0  0  0
   -6.2460   -0.5933    0.0000 C   0  0  0  0  0  0  0  0  0  0  0  0
   -6.5716   -2.0575    0.0000 C   0  0  0  0  0  0  0  0  0  0  0  0
   -7.7445   -0.5268    0.0000 C   0  0  0  0  0  0  0  0  0  0  0  0
   -4.8605   -1.1682    0.0000 C   0  0  0  0  0  0  0  0  0  0  0  0
  1  2  1  0
  2  3  1  0
  3  4  2  0
  4  5  1  0
  5  6  2  0
  6  7  1  0
  7  8  2  0
  7  9  1  0
  9 10  1  0
 10 11  1  0
 11 12  1  0
 12 13  1  0
 13 14  1  0
 14 15  1  0
 15 16  1  0
 16 17  1  0
 17 18  1  0
 18 19  1  0
 19 20  1  0
 19 21  1  0
 19 22  1  0
  8  3  1  0
 22 15  1  0
 11  6  1  0
M  END
>  <ChemBL_ID>  (470) 
CHEMBL129091

>  <Ki>  (470) 
56.6

>  <database>  (470) 
SRSLDB

$$$$

     RDKit          2D

 35 39  0  0  0  0  0  0  0  0999 V2000
    3.0491   -4.0806    0.0000 C   0  0  0  0  0  0  0  0  0  0  0  0
    2.9216   -2.5861    0.0000 C   0  0  0  0  0  0  0  0  0  0  0  0
    1.6376   -1.8107    0.0000 N   0  0  0  0  0  0  0  0  0  0  0  0
    1.9782   -0.3499    0.0000 N   0  0  0  0  0  0  0  0  0  0  0  0
    0.9965    0.7843    0.0000 C   0  0  0  0  0  0  0  0  0  0  0  0
    1.4880    2.2015    0.0000 C   0  0  0  0  0  0  0  0  0  0  0  0
    0.5063    3.3357    0.0000 C   0  0  0  0  0  0  0  0  0  0  0  0
   -0.9667    3.0527    0.0000 C   0  0  0  0  0  0  0  0  0  0  0  0
   -1.9484    4.1869    0.0000 C   0  0  0  0  0  0  0  0  0  0  0  0
   -1.4569    5.6041    0.0000 N   0  0  0  0  0  0  0  0  0  0  0  0
   -3.4214    3.9039    0.0000 O   0  0  0  0  0  0  0  0  0  0  0  0
   -1.4582    1.6355    0.0000 C   0  0  0  0  0  0  0  0  0  0  0  0
   -2.9312    1.3525    0.0000 N   0  0  0  0  0  0  0  0  0  0  0  0
   -3.4226   -0.0648    0.0000 C   0  0  0  0  0  0  0  0  0  0  0  0
   -4.8957   -0.3478    0.0000 C   0  0  0  0  0  0  0  0  0  0  0  0
   -5.3871   -1.7650    0.0000 C   0  0  0  0  0  0  0  0  0  0  0  0
   -5.8786   -3.1822    0.0000 C   0  0  0  0  0  0  0  0  0  0  0  0
   -4.8969   -4.3164    0.0000 C   0  0  0  0  0  0  0  0  0  0  0  0
   -3.4239   -4.0334    0.0000 C   0  0  0  0  0  0  0  0  0  0  0  0
   -2.9325   -2.6162    0.0000 C   0  0  0  0  0  0  0  0  0  0  0  0
   -2.4410   -1.1989    0.0000 C   0  0  0  0  0  0  0  0  0  0  0  0
   -3.9141   -1.4820    0.0000 N   0  0  0  0  0  0  0  0  0  0  0  0
   -3.4226   -0.0648    0.0000 C   0  0  0  0  0  0  0  0  0  0  0  0
   -4.4043    1.0694    0.0000 C   0  0  0  0  0  0  0  0  0  0  0  0
   -3.9128    2.4867    0.0000 O   0  0  0  0  0  0  0  0  0  0  0  0
   -0.4765    0.5013    0.0000 C   0  0  0  0  0  0  0  0  0  0  0  0
    3.4727   -0.2224    0.0000 C   0  0  0  0  0  0  0  0  0  0  0  0
    4.0558   -1.6044    0.0000 C   0  0  0  0  0  0  0  0  0  0  0  0
    5.5442   -1.7905    0.0000 C   0  0  0  0  0  0  0  0  0  0  0  0
    6.1273   -3.1725    0.0000 O   0  0  0  0  0  0  0  0  0  0  0  0
    6.4496   -0.5945    0.0000 C   0  0  0  0  0  0  0  0  0  0  0  0
    5.8665    0.7875    0.0000 C   0  0  0  0  0  0  0  0  0  0  0  0
    5.7912    2.2856    0.0000 C   0  0  0  0  0  0  0  0  0  0  0  0
    7.3288    1.1218    0.0000 C   0  0  0  0  0  0  0  0  0  0  0  0
    4.3781    0.9736    0.0000 C   0  0  0  0  0  0  0  0  0  0  0  0
  1  2  1  0
  2  3  2  0
  3  4  1  0
  4  5  1  0
  5  6  2  0
  6  7  1  0
  7  8  2  0
  8  9  1  0
  9 10  1  0
  9 11  2  0
  8 12  1  0
 12 13  1  0
 13 14  1  0
 14 15  1  0
 15 16  1  0
 16 17  1  0
 17 18  1  0
 18 19  1  0
 19 20  1  0
 20 21  1  0
 20 22  1  0
 22 23  1  0
 23 24  1  0
 24 25  1  0
 12 26  2  0
  4 27  1  0
 27 28  2  0
 28 29  1  0
 29 30  2  0
 29 31  1  0
 31 32  1  0
 32 33  1  0
 32 34  1  0
 32 35  1  0
 28  2  1  0
 26  5  1  0
 35 27  1  0
 21 14  1  0
 22 16  1  0
M  END
>  <Ki>  (471) 
18250.0

>  <database>  (471) 
SRSLDB

$$$$

     RDKit          2D

 36 40  0  0  0  0  0  0  0  0999 V2000
   -9.3175   -0.1385    0.0000 C   0  0  0  0  0  0  0  0  0  0  0  0
   -8.3505   -1.2852    0.0000 O   0  0  0  0  0  0  0  0  0  0  0  0
   -6.8740   -1.0211    0.0000 C   0  0  0  0  0  0  0  0  0  0  0  0
   -6.3644    0.3897    0.0000 C   0  0  0  0  0  0  0  0  0  0  0  0
   -4.8878    0.6538    0.0000 C   0  0  0  0  0  0  0  0  0  0  0  0
   -3.9208   -0.4929    0.0000 C   0  0  0  0  0  0  0  0  0  0  0  0
   -4.4304   -1.9037    0.0000 C   0  0  0  0  0  0  0  0  0  0  0  0
   -5.9070   -2.1678    0.0000 C   0  0  0  0  0  0  0  0  0  0  0  0
   -6.4165   -3.5786    0.0000 O   0  0  0  0  0  0  0  0  0  0  0  0
   -5.4495   -4.7253    0.0000 C   0  0  0  0  0  0  0  0  0  0  0  0
   -2.4443   -0.2288    0.0000 C   0  0  0  0  0  0  0  0  0  0  0  0
   -1.9347    1.1820    0.0000 N   0  0  0  0  0  0  0  0  0  0  0  0
   -0.4581    1.4461    0.0000 C   0  0  0  0  0  0  0  0  0  0  0  0
    0.5089    0.2994    0.0000 C   0  0  0  0  0  0  0  0  0  0  0  0
    1.9854    0.5636    0.0000 C   0  0  0  0  0  0  0  0  0  0  0  0
    2.9524   -0.5831    0.0000 N   0  0  0  0  0  0  0  0  0  0  0  0
    2.5931   -2.0395    0.0000 N   0  0  0  0  0  0  0  0  0  0  0  0
    3.8672   -2.8312    0.0000 C   0  0  0  0  0  0  0  0  0  0  0  0
    3.9755   -4.3273    0.0000 C   0  0  0  0  0  0  0  0  0  0  0  0
    5.0139   -1.8642    0.0000 C   0  0  0  0  0  0  0  0  0  0  0  0
    4.4485   -0.4748    0.0000 C   0  0  0  0  0  0  0  0  0  0  0  0
    5.3691    0.7095    0.0000 C   0  0  0  0  0  0  0  0  0  0  0  0
    6.8550    0.5044    0.0000 C   0  0  0  0  0  0  0  0  0  0  0  0
    8.3215    0.8198    0.0000 C   0  0  0  0  0  0  0  0  0  0  0  0
    6.7990    2.0033    0.0000 C   0  0  0  0  0  0  0  0  0  0  0  0
    7.4204   -0.8850    0.0000 C   0  0  0  0  0  0  0  0  0  0  0  0
    6.4998   -2.0693    0.0000 C   0  0  0  0  0  0  0  0  0  0  0  0
    7.0651   -3.4587    0.0000 O   0  0  0  0  0  0  0  0  0  0  0  0
    2.4950    1.9743    0.0000 C   0  0  0  0  0  0  0  0  0  0  0  0
    1.5280    3.1210    0.0000 C   0  0  0  0  0  0  0  0  0  0  0  0
    0.0514    2.8569    0.0000 C   0  0  0  0  0  0  0  0  0  0  0  0
   -0.9156    4.0036    0.0000 C   0  0  0  0  0  0  0  0  0  0  0  0
   -0.4060    5.4144    0.0000 N   0  0  0  0  0  0  0  0  0  0  0  0
   -2.3921    3.7395    0.0000 O   0  0  0  0  0  0  0  0  0  0  0  0
   -2.9017    2.3287    0.0000 C   0  0  0  0  0  0  0  0  0  0  0  0
   -4.3783    2.0646    0.0000 C   0  0  0  0  0  0  0  0  0  0  0  0
  1  2  1  0
  2  3  1  0
  3  4  2  0
  4  5  1  0
  5  6  2  0
  6  7  1  0
  7  8  2  0
  8  9  1  0
  9 10  1  0
  6 11  1  0
 11 12  1  0
 12 13  1  0
 13 14  2  0
 14 15  1  0
 15 16  1  0
 16 17  1  0
 17 18  2  0
 18 19  1  0
 18 20  1  0
 20 21  2  0
 21 22  1  0
 22 23  1  0
 23 24  1  0
 23 25  1  0
 23 26  1  0
 26 27  1  0
 27 28  2  0
 15 29  2  0
 29 30  1  0
 30 31  2  0
 31 32  1  0
 32 33  1  0
 32 34  2  0
 12 35  1  0
 35 36  1  0
  8  3  1  0
 31 13  1  0
 36  5  1  0
 21 16  1  0
 27 20  1  0
M  END
>  <Ki>  (472) 
18400.0

>  <database>  (472) 
SRSLDB

$$$$

     RDKit          2D

 24 26  0  0  0  0  0  0  0  0999 V2000
   -3.8835    3.0867    0.0000 C   0  0  0  0  0  0  0  0  0  0  0  0
   -3.0794    1.8204    0.0000 C   0  0  0  0  0  0  0  0  0  0  0  0
   -3.7740    0.4909    0.0000 C   0  0  0  0  0  0  0  0  0  0  0  0
   -5.2727    0.4277    0.0000 O   0  0  0  0  0  0  0  0  0  0  0  0
   -2.9700   -0.7753    0.0000 C   0  0  0  0  0  0  0  0  0  0  0  0
   -3.6646   -2.1048    0.0000 C   0  0  0  0  0  0  0  0  0  0  0  0
   -2.8605   -3.3711    0.0000 C   0  0  0  0  0  0  0  0  0  0  0  0
   -1.3618   -3.3079    0.0000 C   0  0  0  0  0  0  0  0  0  0  0  0
   -0.5578   -4.5742    0.0000 O   0  0  0  0  0  0  0  0  0  0  0  0
   -0.6672   -1.9784    0.0000 C   0  0  0  0  0  0  0  0  0  0  0  0
   -1.4713   -0.7121    0.0000 C   0  0  0  0  0  0  0  0  0  0  0  0
   -1.5808    1.8836    0.0000 N   0  0  0  0  0  0  0  0  0  0  0  0
   -0.7767    0.6173    0.0000 C   0  0  0  0  0  0  0  0  0  0  0  0
    0.7220    0.6805    0.0000 C   0  0  0  0  0  0  0  0  0  0  0  0
    1.4166    2.0100    0.0000 C   0  0  0  0  0  0  0  0  0  0  0  0
    2.9152    2.0732    0.0000 C   0  0  0  0  0  0  0  0  0  0  0  0
    3.7193    0.8069    0.0000 C   0  0  0  0  0  0  0  0  0  0  0  0
    3.0247   -0.5225    0.0000 C   0  0  0  0  0  0  0  0  0  0  0  0
    3.8288   -1.7888    0.0000 C   0  0  0  0  0  0  0  0  0  0  0  0
    5.3274   -1.7256    0.0000 C   0  0  0  0  0  0  0  0  0  0  0  0
    6.0220   -0.3961    0.0000 C   0  0  0  0  0  0  0  0  0  0  0  0
    5.2180    0.8701    0.0000 C   0  0  0  0  0  0  0  0  0  0  0  0
    0.6125    3.2763    0.0000 C   0  0  0  0  0  0  0  0  0  0  0  0
   -0.8862    3.2131    0.0000 C   0  0  0  0  0  0  0  0  0  0  0  0
  1  2  1  0
  2  3  1  0
  3  4  1  0
  3  5  1  0
  5  6  2  0
  6  7  1  0
  7  8  2  0
  8  9  1  0
  8 10  1  0
 10 11  2  0
  2 12  1  0
 12 13  1  0
 13 14  1  0
 14 15  1  0
 15 16  1  0
 16 17  1  0
 17 18  2  0
 18 19  1  0
 19 20  2  0
 20 21  1  0
 21 22  2  0
 15 23  1  0
 23 24  1  0
 11  5  1  0
 24 12  1  0
 22 17  1  0
M  END
>  <ChemBL_ID>  (473) 
CHEMBL305187

>  <Ki>  (473) 
18.8

>  <database>  (473) 
SRSLDB

$$$$

     RDKit          2D

 43 47  0  0  0  0  0  0  0  0999 V2000
  -12.8773   -2.0845    0.0000 C   0  0  0  0  0  0  0  0  0  0  0  0
  -11.5318   -2.7476    0.0000 O   0  0  0  0  0  0  0  0  0  0  0  0
  -10.2849   -1.9139    0.0000 C   0  0  0  0  0  0  0  0  0  0  0  0
  -10.3834   -0.4171    0.0000 C   0  0  0  0  0  0  0  0  0  0  0  0
   -9.1364    0.4166    0.0000 C   0  0  0  0  0  0  0  0  0  0  0  0
   -7.7909   -0.2465    0.0000 C   0  0  0  0  0  0  0  0  0  0  0  0
   -7.6924   -1.7432    0.0000 C   0  0  0  0  0  0  0  0  0  0  0  0
   -8.9394   -2.5769    0.0000 C   0  0  0  0  0  0  0  0  0  0  0  0
   -8.8408   -4.0737    0.0000 O   0  0  0  0  0  0  0  0  0  0  0  0
   -7.4953   -4.7367    0.0000 C   0  0  0  0  0  0  0  0  0  0  0  0
   -6.5440    0.5873    0.0000 C   0  0  0  0  0  0  0  0  0  0  0  0
   -6.6425    2.0840    0.0000 N   0  0  0  0  0  0  0  0  0  0  0  0
   -5.3955    2.9177    0.0000 C   0  0  0  0  0  0  0  0  0  0  0  0
   -4.0500    2.2547    0.0000 C   0  0  0  0  0  0  0  0  0  0  0  0
   -2.8031    3.0884    0.0000 C   0  0  0  0  0  0  0  0  0  0  0  0
   -1.4576    2.4253    0.0000 C   0  0  0  0  0  0  0  0  0  0  0  0
   -0.2106    3.2590    0.0000 C   0  0  0  0  0  0  0  0  0  0  0  0
    1.1349    2.5960    0.0000 C   0  0  0  0  0  0  0  0  0  0  0  0
    2.3819    3.4297    0.0000 N   0  0  0  0  0  0  0  0  0  0  0  0
    3.7274    2.7666    0.0000 C   0  0  0  0  0  0  0  0  0  0  0  0
    3.8259    1.2699    0.0000 C   0  0  0  0  0  0  0  0  0  0  0  0
    5.1714    0.6068    0.0000 C   0  0  0  0  0  0  0  0  0  0  0  0
    5.2699   -0.8899    0.0000 N   0  0  0  0  0  0  0  0  0  0  0  0
    4.1169   -1.8494    0.0000 N   0  0  0  0  0  0  0  0  0  0  0  0
    4.6732   -3.2425    0.0000 C   0  0  0  0  0  0  0  0  0  0  0  0
    3.8731   -4.5113    0.0000 C   0  0  0  0  0  0  0  0  0  0  0  0
    6.1699   -3.1439    0.0000 C   0  0  0  0  0  0  0  0  0  0  0  0
    6.5388   -1.6900    0.0000 C   0  0  0  0  0  0  0  0  0  0  0  0
    7.9823   -1.2824    0.0000 C   0  0  0  0  0  0  0  0  0  0  0  0
    9.0571   -2.3288    0.0000 C   0  0  0  0  0  0  0  0  0  0  0  0
   10.4249   -2.9445    0.0000 C   0  0  0  0  0  0  0  0  0  0  0  0
    9.9009   -1.0887    0.0000 C   0  0  0  0  0  0  0  0  0  0  0  0
    8.6883   -3.7827    0.0000 C   0  0  0  0  0  0  0  0  0  0  0  0
    7.2447   -4.1903    0.0000 C   0  0  0  0  0  0  0  0  0  0  0  0
    6.8759   -5.6443    0.0000 O   0  0  0  0  0  0  0  0  0  0  0  0
    6.4184    1.4405    0.0000 C   0  0  0  0  0  0  0  0  0  0  0  0
    6.3198    2.9373    0.0000 C   0  0  0  0  0  0  0  0  0  0  0  0
    4.9743    3.6004    0.0000 C   0  0  0  0  0  0  0  0  0  0  0  0
    4.8758    5.0971    0.0000 C   0  0  0  0  0  0  0  0  0  0  0  0
    6.1228    5.9308    0.0000 N   0  0  0  0  0  0  0  0  0  0  0  0
    3.5303    5.7602    0.0000 O   0  0  0  0  0  0  0  0  0  0  0  0
   -7.9880    2.7471    0.0000 C   0  0  0  0  0  0  0  0  0  0  0  0
   -9.2350    1.9134    0.0000 C   0  0  0  0  0  0  0  0  0  0  0  0
  1  2  1  0
  2  3  1  0
  3  4  2  0
  4  5  1  0
  5  6  2  0
  6  7  1  0
  7  8  2  0
  8  9  1  0
  9 10  1  0
  6 11  1  0
 11 12  1  0
 12 13  1  0
 13 14  1  0
 14 15  1  0
 15 16  1  0
 16 17  1  0
 17 18  1  0
 18 19  1  0
 19 20  1  0
 20 21  2  0
 21 22  1  0
 22 23  1  0
 23 24  1  0
 24 25  2  0
 25 26  1  0
 25 27  1  0
 27 28  2  0
 28 29  1  0
 29 30  1  0
 30 31  1  0
 30 32  1  0
 30 33  1  0
 33 34  1  0
 34 35  2  0
 22 36  2  0
 36 37  1  0
 37 38  2  0
 38 39  1  0
 39 40  1  0
 39 41  2  0
 12 42  1  0
 42 43  1  0
  8  3  1  0
 38 20  1  0
 43  5  1  0
 28 23  1  0
 34 27  1  0
M  END
>  <Ki>  (474) 
21500.0

>  <database>  (474) 
SRSLDB

$$$$

     RDKit          2D

 23 25  0  0  0  0  0  0  0  0999 V2000
   -8.4775   -0.2301    0.0000 C   0  0  0  0  0  0  0  0  0  0  0  0
   -7.0944   -0.8107    0.0000 O   0  0  0  0  0  0  0  0  0  0  0  0
   -5.9001    0.0969    0.0000 C   0  0  0  0  0  0  0  0  0  0  0  0
   -6.0889    1.5850    0.0000 C   0  0  0  0  0  0  0  0  0  0  0  0
   -4.8946    2.4925    0.0000 C   0  0  0  0  0  0  0  0  0  0  0  0
   -3.5115    1.9120    0.0000 C   0  0  0  0  0  0  0  0  0  0  0  0
   -3.3227    0.4240    0.0000 C   0  0  0  0  0  0  0  0  0  0  0  0
   -4.5170   -0.4836    0.0000 C   0  0  0  0  0  0  0  0  0  0  0  0
   -4.0229   -1.8999    0.0000 C   0  0  0  0  0  0  0  0  0  0  0  0
   -2.5233   -1.8676    0.0000 C   0  0  0  0  0  0  0  0  0  0  0  0
   -2.0905   -0.4314    0.0000 C   0  0  0  0  0  0  0  0  0  0  0  0
   -0.6742    0.0627    0.0000 C   0  0  0  0  0  0  0  0  0  0  0  0
    0.4618   -0.9168    0.0000 C   0  0  0  0  0  0  0  0  0  0  0  0
    1.8781   -0.4228    0.0000 C   0  0  0  0  0  0  0  0  0  0  0  0
    3.0141   -1.4023    0.0000 C   0  0  0  0  0  0  0  0  0  0  0  0
    4.4304   -0.9082    0.0000 N   0  0  0  0  0  0  0  0  0  0  0  0
    5.5665   -1.8877    0.0000 C   0  0  0  0  0  0  0  0  0  0  0  0
    6.9828   -1.3936    0.0000 C   0  0  0  0  0  0  0  0  0  0  0  0
    7.2630    0.0800    0.0000 C   0  0  0  0  0  0  0  0  0  0  0  0
    6.1270    1.0595    0.0000 C   0  0  0  0  0  0  0  0  0  0  0  0
    5.3945    2.3685    0.0000 C   0  0  0  0  0  0  0  0  0  0  0  0
    7.2889    2.0082    0.0000 C   0  0  0  0  0  0  0  0  0  0  0  0
    4.7107    0.5654    0.0000 C   0  0  0  0  0  0  0  0  0  0  0  0
  1  2  1  0
  2  3  1  0
  3  4  2  0
  4  5  1  0
  5  6  2  0
  6  7  1  0
  7  8  2  0
  8  9  1  0
  9 10  1  0
 10 11  1  0
 11 12  1  0
 12 13  1  0
 13 14  1  0
 14 15  1  0
 15 16  1  0
 16 17  1  0
 17 18  1  0
 18 19  1  0
 19 20  1  0
 20 21  1  0
 20 22  1  0
 20 23  1  0
  8  3  1  0
 23 16  1  0
 11  7  1  0
M  END
>  <ChemBL_ID>  (475) 
CHEMBL129200

>  <Ki>  (475) 
97.2

>  <database>  (475) 
SRSLDB

$$$$

     RDKit          2D

 28 31  0  0  0  0  0  0  0  0999 V2000
   -9.3908   -1.5458    0.0000 C   0  0  0  0  0  0  0  0  0  0  0  0
   -7.9098   -1.7837    0.0000 O   0  0  0  0  0  0  0  0  0  0  0  0
   -6.9633   -0.6200    0.0000 C   0  0  0  0  0  0  0  0  0  0  0  0
   -7.4977    0.7815    0.0000 C   0  0  0  0  0  0  0  0  0  0  0  0
   -6.5512    1.9452    0.0000 C   0  0  0  0  0  0  0  0  0  0  0  0
   -5.0702    1.7073    0.0000 C   0  0  0  0  0  0  0  0  0  0  0  0
   -4.5357    0.3057    0.0000 C   0  0  0  0  0  0  0  0  0  0  0  0
   -5.4823   -0.8579    0.0000 C   0  0  0  0  0  0  0  0  0  0  0  0
   -4.9478   -2.2595    0.0000 C   0  0  0  0  0  0  0  0  0  0  0  0
   -3.4668   -2.4974    0.0000 C   0  0  0  0  0  0  0  0  0  0  0  0
   -2.5202   -1.3337    0.0000 C   0  0  0  0  0  0  0  0  0  0  0  0
   -3.0547    0.0678    0.0000 C   0  0  0  0  0  0  0  0  0  0  0  0
   -2.1082    1.2314    0.0000 C   0  0  0  0  0  0  0  0  0  0  0  0
   -0.6271    0.9935    0.0000 C   0  0  0  0  0  0  0  0  0  0  0  0
    0.3194    2.1572    0.0000 C   0  0  0  0  0  0  0  0  0  0  0  0
    1.8004    1.9193    0.0000 N   0  0  0  0  0  0  0  0  0  0  0  0
    2.3349    0.5177    0.0000 C   0  0  0  0  0  0  0  0  0  0  0  0
    3.8159    0.2798    0.0000 C   0  0  0  0  0  0  0  0  0  0  0  0
    4.7624    1.4435    0.0000 N   0  0  0  0  0  0  0  0  0  0  0  0
    6.2434    1.2055    0.0000 C   0  0  0  0  0  0  0  0  0  0  0  0
    6.7779   -0.1960    0.0000 C   0  0  0  0  0  0  0  0  0  0  0  0
    5.8314   -1.3596    0.0000 C   0  0  0  0  0  0  0  0  0  0  0  0
    6.3659   -2.7612    0.0000 C   0  0  0  0  0  0  0  0  0  0  0  0
    7.8469   -2.9991    0.0000 C   0  0  0  0  0  0  0  0  0  0  0  0
    8.7934   -1.8355    0.0000 C   0  0  0  0  0  0  0  0  0  0  0  0
    8.2589   -0.4339    0.0000 C   0  0  0  0  0  0  0  0  0  0  0  0
    4.2280    2.8450    0.0000 C   0  0  0  0  0  0  0  0  0  0  0  0
    2.7469    3.0829    0.0000 C   0  0  0  0  0  0  0  0  0  0  0  0
  1  2  1  0
  2  3  1  0
  3  4  2  0
  4  5  1  0
  5  6  2  0
  6  7  1  0
  7  8  2  0
  8  9  1  0
  9 10  1  0
 10 11  1  0
 11 12  1  0
 12 13  1  0
 13 14  1  0
 14 15  1  0
 15 16  1  0
 16 17  1  0
 17 18  1  0
 18 19  1  0
 19 20  1  0
 20 21  1  0
 21 22  2  0
 22 23  1  0
 23 24  2  0
 24 25  1  0
 25 26  2  0
 19 27  1  0
 27 28  1  0
  8  3  1  0
 28 16  1  0
 12  7  1  0
 26 21  1  0
M  END
>  <ChemBL_ID>  (476) 
CHEMBL54020

>  <Ki>  (476) 
1870.0

>  <database>  (476) 
SRSLDB

$$$$

     RDKit          2D

 24 26  0  0  0  0  0  0  0  0999 V2000
   -8.2866    0.9284    0.0000 C   0  0  0  0  0  0  0  0  0  0  0  0
   -7.1031    0.0068    0.0000 O   0  0  0  0  0  0  0  0  0  0  0  0
   -5.7132    0.5709    0.0000 C   0  0  0  0  0  0  0  0  0  0  0  0
   -5.5068    2.0566    0.0000 C   0  0  0  0  0  0  0  0  0  0  0  0
   -4.1169    2.6207    0.0000 C   0  0  0  0  0  0  0  0  0  0  0  0
   -2.9334    1.6991    0.0000 C   0  0  0  0  0  0  0  0  0  0  0  0
   -3.1399    0.2134    0.0000 C   0  0  0  0  0  0  0  0  0  0  0  0
   -4.5297   -0.3507    0.0000 C   0  0  0  0  0  0  0  0  0  0  0  0
   -4.7362   -1.8365    0.0000 C   0  0  0  0  0  0  0  0  0  0  0  0
   -3.5527   -2.7581    0.0000 C   0  0  0  0  0  0  0  0  0  0  0  0
   -2.1628   -2.1940    0.0000 C   0  0  0  0  0  0  0  0  0  0  0  0
   -1.9564   -0.7083    0.0000 C   0  0  0  0  0  0  0  0  0  0  0  0
   -0.5665   -0.1442    0.0000 C   0  0  0  0  0  0  0  0  0  0  0  0
    0.6170   -1.0658    0.0000 C   0  0  0  0  0  0  0  0  0  0  0  0
    2.0069   -0.5017    0.0000 C   0  0  0  0  0  0  0  0  0  0  0  0
    3.1903   -1.4233    0.0000 C   0  0  0  0  0  0  0  0  0  0  0  0
    4.5802   -0.8592    0.0000 N   0  0  0  0  0  0  0  0  0  0  0  0
    5.7637   -1.7808    0.0000 C   0  0  0  0  0  0  0  0  0  0  0  0
    7.1536   -1.2167    0.0000 C   0  0  0  0  0  0  0  0  0  0  0  0
    7.3600    0.2690    0.0000 C   0  0  0  0  0  0  0  0  0  0  0  0
    6.1765    1.1906    0.0000 C   0  0  0  0  0  0  0  0  0  0  0  0
    5.3796    2.4614    0.0000 C   0  0  0  0  0  0  0  0  0  0  0  0
    7.2897    2.1961    0.0000 C   0  0  0  0  0  0  0  0  0  0  0  0
    4.7866    0.6265    0.0000 C   0  0  0  0  0  0  0  0  0  0  0  0
  1  2  1  0
  2  3  1  0
  3  4  2  0
  4  5  1  0
  5  6  2  0
  6  7  1  0
  7  8  2  0
  8  9  1  0
  9 10  1  0
 10 11  1  0
 11 12  1  0
 12 13  1  0
 13 14  1  0
 14 15  1  0
 15 16  1  0
 16 17  1  0
 17 18  1  0
 18 19  1  0
 19 20  1  0
 20 21  1  0
 21 22  1  0
 21 23  1  0
 21 24  1  0
  8  3  1  0
 24 17  1  0
 12  7  1  0
M  END
>  <ChemBL_ID>  (477) 
CHEMBL128358

>  <Ki>  (477) 
183.0

>  <database>  (477) 
SRSLDB

$$$$

     RDKit          2D

 24 26  0  0  0  0  0  0  0  0999 V2000
    6.9077   -3.6207    0.0000 C   0  0  0  0  0  0  0  0  0  0  0  0
    6.9875   -2.1228    0.0000 O   0  0  0  0  0  0  0  0  0  0  0  0
    5.7302   -1.3047    0.0000 C   0  0  0  0  0  0  0  0  0  0  0  0
    4.3931   -1.9845    0.0000 C   0  0  0  0  0  0  0  0  0  0  0  0
    3.1358   -1.1665    0.0000 C   0  0  0  0  0  0  0  0  0  0  0  0
    3.2157    0.3314    0.0000 C   0  0  0  0  0  0  0  0  0  0  0  0
    4.5528    1.0112    0.0000 C   0  0  0  0  0  0  0  0  0  0  0  0
    5.8101    0.1931    0.0000 C   0  0  0  0  0  0  0  0  0  0  0  0
    4.6326    2.5091    0.0000 C   0  0  0  0  0  0  0  0  0  0  0  0
    3.3753    3.3271    0.0000 C   0  0  0  0  0  0  0  0  0  0  0  0
    2.0382    2.6473    0.0000 C   0  0  0  0  0  0  0  0  0  0  0  0
    1.9584    1.1494    0.0000 C   0  0  0  0  0  0  0  0  0  0  0  0
    0.6213    0.4696    0.0000 C   0  0  0  0  0  0  0  0  0  0  0  0
   -0.6360    1.2877    0.0000 C   0  0  0  0  0  0  0  0  0  0  0  0
   -1.9731    0.6078    0.0000 C   0  0  0  0  0  0  0  0  0  0  0  0
   -3.2304    1.4259    0.0000 C   0  0  0  0  0  0  0  0  0  0  0  0
   -4.5675    0.7461    0.0000 N   0  0  0  0  0  0  0  0  0  0  0  0
   -5.8248    1.5641    0.0000 C   0  0  0  0  0  0  0  0  0  0  0  0
   -7.1619    0.8843    0.0000 C   0  0  0  0  0  0  0  0  0  0  0  0
   -7.2417   -0.6136    0.0000 C   0  0  0  0  0  0  0  0  0  0  0  0
   -5.9844   -1.4316    0.0000 C   0  0  0  0  0  0  0  0  0  0  0  0
   -5.0828   -2.6304    0.0000 C   0  0  0  0  0  0  0  0  0  0  0  0
   -7.0084   -2.5278    0.0000 C   0  0  0  0  0  0  0  0  0  0  0  0
   -4.6473   -0.7518    0.0000 C   0  0  0  0  0  0  0  0  0  0  0  0
  1  2  1  0
  2  3  1  0
  3  4  2  0
  4  5  1  0
  5  6  2  0
  6  7  1  0
  7  8  2  0
  7  9  1  0
  9 10  1  0
 10 11  1  0
 11 12  1  0
 12 13  1  0
 13 14  1  0
 14 15  1  0
 15 16  1  0
 16 17  1  0
 17 18  1  0
 18 19  1  0
 19 20  1  0
 20 21  1  0
 21 22  1  0
 21 23  1  0
 21 24  1  0
  8  3  1  0
 24 17  1  0
 12  6  1  0
M  END
>  <ChemBL_ID>  (478) 
CHEMBL129145

>  <Compound_Key>  (478) 
19

>  <Ki>  (478) 
247.0

>  <database>  (478) 
Literature

>  <Assay_ChEMBL_ID>  (478) 
CHEMBL860171

>  <Document_ChEMBL_ID>  (478) 
CHEMBL1141188

$$$$

     RDKit          2D

 25 27  0  0  0  0  0  0  0  0999 V2000
    8.3661   -2.9609    0.0000 C   0  0  0  0  0  0  0  0  0  0  0  0
    8.1578   -1.4754    0.0000 O   0  0  0  0  0  0  0  0  0  0  0  0
    6.7672   -0.9131    0.0000 C   0  0  0  0  0  0  0  0  0  0  0  0
    5.5849   -1.8362    0.0000 C   0  0  0  0  0  0  0  0  0  0  0  0
    4.1943   -1.2739    0.0000 C   0  0  0  0  0  0  0  0  0  0  0  0
    3.9860    0.2116    0.0000 C   0  0  0  0  0  0  0  0  0  0  0  0
    5.1683    1.1347    0.0000 C   0  0  0  0  0  0  0  0  0  0  0  0
    6.5589    0.5724    0.0000 C   0  0  0  0  0  0  0  0  0  0  0  0
    4.9600    2.6202    0.0000 C   0  0  0  0  0  0  0  0  0  0  0  0
    3.5693    3.1825    0.0000 C   0  0  0  0  0  0  0  0  0  0  0  0
    2.3871    2.2594    0.0000 C   0  0  0  0  0  0  0  0  0  0  0  0
    2.5954    0.7739    0.0000 C   0  0  0  0  0  0  0  0  0  0  0  0
    1.4131   -0.1492    0.0000 C   0  0  0  0  0  0  0  0  0  0  0  0
    0.0225    0.4131    0.0000 C   0  0  0  0  0  0  0  0  0  0  0  0
   -1.1598   -0.5100    0.0000 C   0  0  0  0  0  0  0  0  0  0  0  0
   -2.5504    0.0523    0.0000 C   0  0  0  0  0  0  0  0  0  0  0  0
   -3.7327   -0.8709    0.0000 C   0  0  0  0  0  0  0  0  0  0  0  0
   -5.1233   -0.3085    0.0000 N   0  0  0  0  0  0  0  0  0  0  0  0
   -5.3317    1.1769    0.0000 C   0  0  0  0  0  0  0  0  0  0  0  0
   -6.7223    1.7393    0.0000 C   0  0  0  0  0  0  0  0  0  0  0  0
   -7.9046    0.8161    0.0000 C   0  0  0  0  0  0  0  0  0  0  0  0
   -7.6962   -0.6693    0.0000 C   0  0  0  0  0  0  0  0  0  0  0  0
   -8.0086   -2.1364    0.0000 C   0  0  0  0  0  0  0  0  0  0  0  0
   -9.1953   -0.6165    0.0000 C   0  0  0  0  0  0  0  0  0  0  0  0
   -6.3056   -1.2317    0.0000 C   0  0  0  0  0  0  0  0  0  0  0  0
  1  2  1  0
  2  3  1  0
  3  4  2  0
  4  5  1  0
  5  6  2  0
  6  7  1  0
  7  8  2  0
  7  9  1  0
  9 10  1  0
 10 11  1  0
 11 12  1  0
 12 13  1  0
 13 14  1  0
 14 15  1  0
 15 16  1  0
 16 17  1  0
 17 18  1  0
 18 19  1  0
 19 20  1  0
 20 21  1  0
 21 22  1  0
 22 23  1  0
 22 24  1  0
 22 25  1  0
  8  3  1  0
 25 18  1  0
 12  6  1  0
M  END
>  <ChemBL_ID>  (479) 
CHEMBL337974

>  <Ki>  (479) 
409.0

>  <database>  (479) 
SRSLDB

$$$$

     RDKit          2D

 22 24  0  0  0  0  0  0  0  0999 V2000
    7.1616    1.7724    0.0000 C   0  0  0  0  0  0  0  0  0  0  0  0
    6.7202    0.3389    0.0000 C   0  0  0  0  0  0  0  0  0  0  0  0
    8.2086    0.1531    0.0000 C   0  0  0  0  0  0  0  0  0  0  0  0
    6.7956   -1.1592    0.0000 C   0  0  0  0  0  0  0  0  0  0  0  0
    5.5360   -1.9737    0.0000 C   0  0  0  0  0  0  0  0  0  0  0  0
    4.2009   -1.2900    0.0000 C   0  0  0  0  0  0  0  0  0  0  0  0
    4.1254    0.2081    0.0000 N   0  0  0  0  0  0  0  0  0  0  0  0
    2.7902    0.8918    0.0000 C   0  0  0  0  0  0  0  0  0  0  0  0
    1.5306    0.0774    0.0000 C   0  0  0  0  0  0  0  0  0  0  0  0
    0.1955    0.7611    0.0000 C   0  0  0  0  0  0  0  0  0  0  0  0
   -1.0642   -0.0533    0.0000 C   0  0  0  0  0  0  0  0  0  0  0  0
   -2.3993    0.6303    0.0000 C   0  0  0  0  0  0  0  0  0  0  0  0
   -3.6590   -0.1841    0.0000 C   0  0  0  0  0  0  0  0  0  0  0  0
   -3.5835   -1.6822    0.0000 C   0  0  0  0  0  0  0  0  0  0  0  0
   -4.8432   -2.4966    0.0000 C   0  0  0  0  0  0  0  0  0  0  0  0
   -6.1783   -1.8129    0.0000 C   0  0  0  0  0  0  0  0  0  0  0  0
   -6.2538   -0.3148    0.0000 C   0  0  0  0  0  0  0  0  0  0  0  0
   -7.4176    0.6315    0.0000 S   0  0  0  0  0  0  0  0  0  0  0  0
   -6.8772    2.0308    0.0000 C   0  0  0  0  0  0  0  0  0  0  0  0
   -5.3794    1.9493    0.0000 C   0  0  0  0  0  0  0  0  0  0  0  0
   -4.9941    0.4996    0.0000 C   0  0  0  0  0  0  0  0  0  0  0  0
    5.3850    1.0225    0.0000 C   0  0  0  0  0  0  0  0  0  0  0  0
  1  2  1  0
  2  3  1  0
  2  4  1  0
  4  5  1  0
  5  6  1  0
  6  7  1  0
  7  8  1  0
  8  9  1  0
  9 10  1  0
 10 11  1  0
 11 12  1  0
 12 13  1  0
 13 14  1  0
 14 15  1  0
 15 16  1  0
 16 17  1  0
 17 18  1  0
 18 19  1  0
 19 20  2  0
 20 21  1  0
  7 22  1  0
 22  2  1  0
 21 13  1  0
 21 17  2  0
M  END
>  <ChemBL_ID>  (480) 
CHEMBL1962480

>  <Ki>  (480) 
28.1

>  <database>  (480) 
SRSLDB

$$$$

     RDKit          2D

 16 17  0  0  0  0  0  0  0  0999 V2000
   -5.2703    0.6258    0.0000 C   0  0  0  0  0  0  0  0  0  0  0  0
   -4.1244   -0.3421    0.0000 O   0  0  0  0  0  0  0  0  0  0  0  0
   -2.7132    0.1663    0.0000 C   0  0  0  0  0  0  0  0  0  0  0  0
   -2.4479    1.6426    0.0000 C   0  0  0  0  0  0  0  0  0  0  0  0
   -1.0367    2.1510    0.0000 C   0  0  0  0  0  0  0  0  0  0  0  0
    0.1092    1.1831    0.0000 C   0  0  0  0  0  0  0  0  0  0  0  0
    1.5204    1.6915    0.0000 C   0  0  0  0  0  0  0  0  0  0  0  0
    2.6663    0.7235    0.0000 N   0  0  0  0  0  0  0  0  0  0  0  0
    4.1230    1.0816    0.0000 C   0  0  0  0  0  0  0  0  0  0  0  0
    4.9137   -0.1930    0.0000 C   0  0  0  0  0  0  0  0  0  0  0  0
    3.9457   -1.3389    0.0000 C   0  0  0  0  0  0  0  0  0  0  0  0
    2.5568   -0.7725    0.0000 C   0  0  0  0  0  0  0  0  0  0  0  0
   -0.1561   -0.2933    0.0000 C   0  0  0  0  0  0  0  0  0  0  0  0
   -1.5673   -0.8017    0.0000 C   0  0  0  0  0  0  0  0  0  0  0  0
   -1.8326   -2.2780    0.0000 O   0  0  0  0  0  0  0  0  0  0  0  0
   -0.6867   -3.2460    0.0000 C   0  0  0  0  0  0  0  0  0  0  0  0
  1  2  1  0
  2  3  1  0
  3  4  2  0
  4  5  1  0
  5  6  2  0
  6  7  1  0
  7  8  1  0
  8  9  1  0
  9 10  1  0
 10 11  1  0
 11 12  1  0
  6 13  1  0
 13 14  2  0
 14 15  1  0
 15 16  1  0
 14  3  1  0
 12  8  1  0
M  END
>  <ChemBL_ID>  (481) 
CHEMBL2030633

>  <Ki>  (481) 
658.0

>  <database>  (481) 
SRSLDB

$$$$

     RDKit          2D

 15 16  0  0  0  0  0  0  0  0999 V2000
   -3.5778   -2.7759    0.0000 F   0  0  0  0  0  0  0  0  0  0  0  0
   -3.4425   -1.2820    0.0000 C   0  0  0  0  0  0  0  0  0  0  0  0
   -4.6686   -0.4179    0.0000 C   0  0  0  0  0  0  0  0  0  0  0  0
   -4.5333    1.0760    0.0000 C   0  0  0  0  0  0  0  0  0  0  0  0
   -3.1719    1.7057    0.0000 C   0  0  0  0  0  0  0  0  0  0  0  0
   -1.9458    0.8416    0.0000 C   0  0  0  0  0  0  0  0  0  0  0  0
   -0.5844    1.4714    0.0000 C   0  0  0  0  0  0  0  0  0  0  0  0
    0.6417    0.6073    0.0000 C   0  0  0  0  0  0  0  0  0  0  0  0
    2.0031    1.2370    0.0000 C   0  0  0  0  0  0  0  0  0  0  0  0
    3.2292    0.3729    0.0000 N   0  0  0  0  0  0  0  0  0  0  0  0
    4.6489    0.8569    0.0000 C   0  0  0  0  0  0  0  0  0  0  0  0
    5.5480   -0.3438    0.0000 C   0  0  0  0  0  0  0  0  0  0  0  0
    4.6839   -1.5699    0.0000 C   0  0  0  0  0  0  0  0  0  0  0  0
    3.2508   -1.1269    0.0000 C   0  0  0  0  0  0  0  0  0  0  0  0
   -2.0811   -0.6523    0.0000 C   0  0  0  0  0  0  0  0  0  0  0  0
  1  2  1  0
  2  3  2  0
  3  4  1  0
  4  5  2  0
  5  6  1  0
  6  7  1  0
  7  8  1  0
  8  9  1  0
  9 10  1  0
 10 11  1  0
 11 12  1  0
 12 13  1  0
 13 14  1  0
  6 15  2  0
 15  2  1  0
 14 10  1  0
M  END
>  <ChemBL_ID>  (482) 
CHEMBL2030637

>  <Ki>  (482) 
39.0

>  <database>  (482) 
SRSLDB

$$$$

     RDKit          2D

 29 33  0  0  0  0  0  0  0  0999 V2000
   -9.8832    0.2191    0.0000 C   0  0  0  0  0  0  0  0  0  0  0  0
   -8.4996    0.7984    0.0000 O   0  0  0  0  0  0  0  0  0  0  0  0
   -7.3061   -0.1101    0.0000 C   0  0  0  0  0  0  0  0  0  0  0  0
   -7.4962   -1.5980    0.0000 C   0  0  0  0  0  0  0  0  0  0  0  0
   -6.3026   -2.5066    0.0000 C   0  0  0  0  0  0  0  0  0  0  0  0
   -4.9190   -1.9272    0.0000 C   0  0  0  0  0  0  0  0  0  0  0  0
   -4.7290   -0.4393    0.0000 C   0  0  0  0  0  0  0  0  0  0  0  0
   -5.9225    0.4692    0.0000 C   0  0  0  0  0  0  0  0  0  0  0  0
   -5.7324    1.9571    0.0000 C   0  0  0  0  0  0  0  0  0  0  0  0
   -4.3488    2.5365    0.0000 C   0  0  0  0  0  0  0  0  0  0  0  0
   -3.1553    1.6280    0.0000 C   0  0  0  0  0  0  0  0  0  0  0  0
   -3.3454    0.1401    0.0000 C   0  0  0  0  0  0  0  0  0  0  0  0
   -2.1518   -0.7685    0.0000 C   0  0  0  0  0  0  0  0  0  0  0  0
   -0.7682   -0.1891    0.0000 C   0  0  0  0  0  0  0  0  0  0  0  0
    0.4253   -1.0977    0.0000 C   0  0  0  0  0  0  0  0  0  0  0  0
    1.8089   -0.5183    0.0000 N   0  0  0  0  0  0  0  0  0  0  0  0
    3.0024   -1.4269    0.0000 C   0  0  0  0  0  0  0  0  0  0  0  0
    4.3860   -0.8475    0.0000 C   0  0  0  0  0  0  0  0  0  0  0  0
    4.5761    0.6404    0.0000 C   0  0  0  0  0  0  0  0  0  0  0  0
    3.3826    1.5489    0.0000 C   0  0  0  0  0  0  0  0  0  0  0  0
    1.9990    0.9696    0.0000 C   0  0  0  0  0  0  0  0  0  0  0  0
    4.9206    2.1003    0.0000 C   0  0  0  0  0  0  0  0  0  0  0  0
    6.4156    2.2237    0.0000 O   0  0  0  0  0  0  0  0  0  0  0  0
    6.9949    0.8401    0.0000 C   0  0  0  0  0  0  0  0  0  0  0  0
    8.4108    0.3449    0.0000 C   0  0  0  0  0  0  0  0  0  0  0  0
    8.6898   -1.1289    0.0000 C   0  0  0  0  0  0  0  0  0  0  0  0
    7.5530   -2.1075    0.0000 C   0  0  0  0  0  0  0  0  0  0  0  0
    6.1371   -1.6122    0.0000 C   0  0  0  0  0  0  0  0  0  0  0  0
    5.8581   -0.1384    0.0000 C   0  0  0  0  0  0  0  0  0  0  0  0
  1  2  1  0
  2  3  1  0
  3  4  2  0
  4  5  1  0
  5  6  2  0
  6  7  1  0
  7  8  2  0
  8  9  1  0
  9 10  1  0
 10 11  1  0
 11 12  1  0
 12 13  1  0
 13 14  1  0
 14 15  1  0
 15 16  1  0
 16 17  1  0
 17 18  1  0
 18 19  1  0
 19 20  1  0
 20 21  1  0
 19 22  1  0
 22 23  1  0
 23 24  1  0
 24 25  2  0
 25 26  1  0
 26 27  2  0
 27 28  1  0
 28 29  2  0
  8  3  1  0
 21 16  1  0
 29 24  1  0
 12  7  1  0
 29 19  1  0
M  END
>  <Ki>  (483) 
40.6

>  <database>  (483) 
SRSLDB

$$$$

     RDKit          2D

 32 35  0  0  0  0  0  0  0  0999 V2000
   -6.0410   -2.6240    0.0000 C   0  0  0  0  0  0  0  0  0  0  0  0
   -4.5419   -2.6768    0.0000 C   0  0  0  0  0  0  0  0  0  0  0  0
   -3.7468   -1.4049    0.0000 N   0  0  0  0  0  0  0  0  0  0  0  0
   -2.2477   -1.4576    0.0000 C   0  0  0  0  0  0  0  0  0  0  0  0
   -1.4525   -0.1857    0.0000 C   0  0  0  0  0  0  0  0  0  0  0  0
    0.0466   -0.2384    0.0000 C   0  0  0  0  0  0  0  0  0  0  0  0
    0.8418    1.0335    0.0000 C   0  0  0  0  0  0  0  0  0  0  0  0
    2.3408    0.9808    0.0000 C   0  0  0  0  0  0  0  0  0  0  0  0
    3.1793   -0.2630    0.0000 C   0  0  0  0  0  0  0  0  0  0  0  0
    4.6213    0.1502    0.0000 N   0  0  0  0  0  0  0  0  0  0  0  0
    5.8031   -0.7736    0.0000 C   0  0  0  0  0  0  0  0  0  0  0  0
    5.5940   -2.2590    0.0000 C   0  0  0  0  0  0  0  0  0  0  0  0
    6.7758   -3.1827    0.0000 C   0  0  0  0  0  0  0  0  0  0  0  0
    8.1667   -2.6212    0.0000 C   0  0  0  0  0  0  0  0  0  0  0  0
    9.3485   -3.5449    0.0000 F   0  0  0  0  0  0  0  0  0  0  0  0
    8.3758   -1.1358    0.0000 C   0  0  0  0  0  0  0  0  0  0  0  0
    7.1940   -0.2120    0.0000 C   0  0  0  0  0  0  0  0  0  0  0  0
    4.6740    1.6492    0.0000 C   0  0  0  0  0  0  0  0  0  0  0  0
    5.8233    2.6131    0.0000 C   0  0  0  0  0  0  0  0  0  0  0  0
    5.5632    4.0904    0.0000 C   0  0  0  0  0  0  0  0  0  0  0  0
    4.1538    4.6038    0.0000 C   0  0  0  0  0  0  0  0  0  0  0  0
    3.0045    3.6399    0.0000 C   0  0  0  0  0  0  0  0  0  0  0  0
    3.2646    2.1626    0.0000 C   0  0  0  0  0  0  0  0  0  0  0  0
   -4.4506   -0.0803    0.0000 C   0  0  0  0  0  0  0  0  0  0  0  0
   -5.9497   -0.0276    0.0000 C   0  0  0  0  0  0  0  0  0  0  0  0
   -6.6536    1.2970    0.0000 C   0  0  0  0  0  0  0  0  0  0  0  0
   -8.1527    1.3497    0.0000 C   0  0  0  0  0  0  0  0  0  0  0  0
   -8.9479    0.0778    0.0000 C   0  0  0  0  0  0  0  0  0  0  0  0
  -10.4469    0.1305    0.0000 O   0  0  0  0  0  0  0  0  0  0  0  0
  -11.1508    1.4551    0.0000 C   0  0  0  0  0  0  0  0  0  0  0  0
   -8.2440   -1.2468    0.0000 C   0  0  0  0  0  0  0  0  0  0  0  0
   -6.7449   -1.2995    0.0000 C   0  0  0  0  0  0  0  0  0  0  0  0
  1  2  1  0
  2  3  1  0
  3  4  1  0
  4  5  1  0
  5  6  1  0
  6  7  1  0
  7  8  1  0
  8  9  2  0
  9 10  1  0
 10 11  1  0
 11 12  2  0
 12 13  1  0
 13 14  2  0
 14 15  1  0
 14 16  1  0
 16 17  2  0
 10 18  1  0
 18 19  2  0
 19 20  1  0
 20 21  2  0
 21 22  1  0
 22 23  2  0
  3 24  1  0
 24 25  1  0
 25 26  2  0
 26 27  1  0
 27 28  2  0
 28 29  1  0
 29 30  1  0
 28 31  1  0
 31 32  2  0
 23  8  1  0
 32 25  1  0
 17 11  1  0
 23 18  1  0
M  END
>  <Ki>  (484) 
69.8

>  <database>  (484) 
SRSLDB

$$$$

     RDKit          2D

 13 14  0  0  0  0  0  0  0  0999 V2000
   -2.5031   -2.6108    0.0000 F   0  0  0  0  0  0  0  0  0  0  0  0
   -2.2986   -1.1248    0.0000 C   0  0  0  0  0  0  0  0  0  0  0  0
   -3.4832   -0.2047    0.0000 C   0  0  0  0  0  0  0  0  0  0  0  0
   -3.2787    1.2813    0.0000 C   0  0  0  0  0  0  0  0  0  0  0  0
   -1.8895    1.8472    0.0000 C   0  0  0  0  0  0  0  0  0  0  0  0
   -0.7049    0.9271    0.0000 C   0  0  0  0  0  0  0  0  0  0  0  0
    0.6843    1.4929    0.0000 C   0  0  0  0  0  0  0  0  0  0  0  0
    1.8689    0.5728    0.0000 N   0  0  0  0  0  0  0  0  0  0  0  0
    3.3096    0.9904    0.0000 C   0  0  0  0  0  0  0  0  0  0  0  0
    4.1520   -0.2508    0.0000 C   0  0  0  0  0  0  0  0  0  0  0  0
    3.2318   -1.4354    0.0000 C   0  0  0  0  0  0  0  0  0  0  0  0
    1.8208   -0.9264    0.0000 C   0  0  0  0  0  0  0  0  0  0  0  0
   -0.9094   -0.5589    0.0000 C   0  0  0  0  0  0  0  0  0  0  0  0
  1  2  1  0
  2  3  2  0
  3  4  1  0
  4  5  2  0
  5  6  1  0
  6  7  1  0
  7  8  1  0
  8  9  1  0
  9 10  1  0
 10 11  1  0
 11 12  1  0
  6 13  2  0
 13  2  1  0
 12  8  1  0
M  END
>  <ChemBL_ID>  (485) 
CHEMBL2030632

>  <Ki>  (485) 
852.0

>  <database>  (485) 
SRSLDB

$$$$

     RDKit          2D

 28 31  0  0  0  0  0  0  0  0999 V2000
   -9.8133   -0.9338    0.0000 C   0  0  0  0  0  0  0  0  0  0  0  0
   -8.3700   -1.3425    0.0000 O   0  0  0  0  0  0  0  0  0  0  0  0
   -7.2944   -0.2970    0.0000 C   0  0  0  0  0  0  0  0  0  0  0  0
   -7.6621    1.1573    0.0000 C   0  0  0  0  0  0  0  0  0  0  0  0
   -6.5865    2.2028    0.0000 C   0  0  0  0  0  0  0  0  0  0  0  0
   -5.1433    1.7941    0.0000 C   0  0  0  0  0  0  0  0  0  0  0  0
   -4.7756    0.3398    0.0000 C   0  0  0  0  0  0  0  0  0  0  0  0
   -5.8512   -0.7057    0.0000 C   0  0  0  0  0  0  0  0  0  0  0  0
   -5.4835   -2.1599    0.0000 C   0  0  0  0  0  0  0  0  0  0  0  0
   -4.0403   -2.5687    0.0000 C   0  0  0  0  0  0  0  0  0  0  0  0
   -2.9647   -1.5231    0.0000 C   0  0  0  0  0  0  0  0  0  0  0  0
   -3.3324   -0.0689    0.0000 C   0  0  0  0  0  0  0  0  0  0  0  0
   -2.2568    0.9766    0.0000 C   0  0  0  0  0  0  0  0  0  0  0  0
   -0.8135    0.5679    0.0000 C   0  0  0  0  0  0  0  0  0  0  0  0
    0.2620    1.6134    0.0000 C   0  0  0  0  0  0  0  0  0  0  0  0
    1.7053    1.2047    0.0000 N   0  0  0  0  0  0  0  0  0  0  0  0
    2.0729   -0.2495    0.0000 C   0  0  0  0  0  0  0  0  0  0  0  0
    3.5162   -0.6582    0.0000 C   0  0  0  0  0  0  0  0  0  0  0  0
    4.5918    0.3873    0.0000 C   0  0  0  0  0  0  0  0  0  0  0  0
    6.0350   -0.0214    0.0000 C   0  0  0  0  0  0  0  0  0  0  0  0
    6.4027   -1.4757    0.0000 C   0  0  0  0  0  0  0  0  0  0  0  0
    7.8459   -1.8844    0.0000 C   0  0  0  0  0  0  0  0  0  0  0  0
    8.9215   -0.8389    0.0000 C   0  0  0  0  0  0  0  0  0  0  0  0
   10.3647   -1.2476    0.0000 F   0  0  0  0  0  0  0  0  0  0  0  0
    8.5538    0.6154    0.0000 C   0  0  0  0  0  0  0  0  0  0  0  0
    7.1106    1.0241    0.0000 C   0  0  0  0  0  0  0  0  0  0  0  0
    4.2241    1.8415    0.0000 C   0  0  0  0  0  0  0  0  0  0  0  0
    2.7809    2.2503    0.0000 C   0  0  0  0  0  0  0  0  0  0  0  0
  1  2  1  0
  2  3  1  0
  3  4  2  0
  4  5  1  0
  5  6  2  0
  6  7  1  0
  7  8  2  0
  8  9  1  0
  9 10  1  0
 10 11  1  0
 11 12  1  0
 12 13  1  0
 13 14  1  0
 14 15  1  0
 15 16  1  0
 16 17  1  0
 17 18  1  0
 18 19  1  0
 19 20  1  0
 20 21  2  0
 21 22  1  0
 22 23  2  0
 23 24  1  0
 23 25  1  0
 25 26  2  0
 19 27  1  0
 27 28  1  0
  8  3  1  0
 28 16  1  0
 12  7  1  0
 26 20  1  0
M  END
>  <Ki>  (486) 
22.6

>  <database>  (486) 
SRSLDB

$$$$

     RDKit          2D

 14 16  0  0  0  0  0  0  0  0999 V2000
    3.7256    0.6849    0.0000 C   0  0  0  0  0  0  0  0  0  0  0  0
    3.8169   -0.8123    0.0000 C   0  0  0  0  0  0  0  0  0  0  0  0
    2.5660   -1.6400    0.0000 N   0  0  0  0  0  0  0  0  0  0  0  0
    1.2237   -0.9705    0.0000 C   0  0  0  0  0  0  0  0  0  0  0  0
    1.1324    0.5267    0.0000 C   0  0  0  0  0  0  0  0  0  0  0  0
   -0.2099    1.1962    0.0000 C   0  0  0  0  0  0  0  0  0  0  0  0
   -1.4609    0.3685    0.0000 N   0  0  0  0  0  0  0  0  0  0  0  0
   -1.5266   -1.1300    0.0000 C   0  0  0  0  0  0  0  0  0  0  0  0
   -2.9721   -1.5306    0.0000 C   0  0  0  0  0  0  0  0  0  0  0  0
   -3.7998   -0.2797    0.0000 C   0  0  0  0  0  0  0  0  0  0  0  0
   -2.8658    0.8941    0.0000 C   0  0  0  0  0  0  0  0  0  0  0  0
   -1.4203    1.2947    0.0000 C   0  0  0  0  0  0  0  0  0  0  0  0
   -0.5926    0.0437    0.0000 C   0  0  0  0  0  0  0  0  0  0  0  0
    2.3833    1.3544    0.0000 C   0  0  0  0  0  0  0  0  0  0  0  0
  1  2  2  0
  2  3  1  0
  3  4  2  0
  4  5  1  0
  5  6  1  0
  6  7  1  0
  7  8  1  0
  8  9  1  0
  9 10  1  0
 10 11  1  0
 11 12  1  0
 12 13  1  0
  5 14  2  0
 14  1  1  0
 11  7  1  0
 13  8  1  0
M  END
>  <ChemBL_ID>  (487) 
CHEMBL104700

>  <Ki>  (487) 
6352.0

>  <database>  (487) 
SRSLDB

$$$$

     RDKit          2D

 14 15  0  0  0  0  0  0  0  0999 V2000
   -3.9576   -2.3386    0.0000 F   0  0  0  0  0  0  0  0  0  0  0  0
   -3.3660   -0.9602    0.0000 C   0  0  0  0  0  0  0  0  0  0  0  0
   -4.2639    0.2414    0.0000 C   0  0  0  0  0  0  0  0  0  0  0  0
   -3.6722    1.6198    0.0000 C   0  0  0  0  0  0  0  0  0  0  0  0
   -2.1827    1.7966    0.0000 C   0  0  0  0  0  0  0  0  0  0  0  0
   -1.2848    0.5950    0.0000 C   0  0  0  0  0  0  0  0  0  0  0  0
    0.2047    0.7718    0.0000 C   0  0  0  0  0  0  0  0  0  0  0  0
    1.1026   -0.4297    0.0000 C   0  0  0  0  0  0  0  0  0  0  0  0
    2.5922   -0.2529    0.0000 N   0  0  0  0  0  0  0  0  0  0  0  0
    3.3247    1.0561    0.0000 C   0  0  0  0  0  0  0  0  0  0  0  0
    4.7959    0.7639    0.0000 C   0  0  0  0  0  0  0  0  0  0  0  0
    4.9728   -0.7256    0.0000 C   0  0  0  0  0  0  0  0  0  0  0  0
    3.6108   -1.3541    0.0000 C   0  0  0  0  0  0  0  0  0  0  0  0
   -1.8764   -0.7834    0.0000 C   0  0  0  0  0  0  0  0  0  0  0  0
  1  2  1  0
  2  3  2  0
  3  4  1  0
  4  5  2  0
  5  6  1  0
  6  7  1  0
  7  8  1  0
  8  9  1  0
  9 10  1  0
 10 11  1  0
 11 12  1  0
 12 13  1  0
  6 14  2  0
 14  2  1  0
 13  9  1  0
M  END
>  <ChemBL_ID>  (488) 
CHEMBL2030636

>  <Ki>  (488) 
246.0

>  <database>  (488) 
SRSLDB

$$$$

     RDKit          2D

 15 17  0  0  0  0  0  0  0  0999 V2000
    4.7417    1.0409    0.0000 F   0  0  0  0  0  0  0  0  0  0  0  0
    3.4293    0.3145    0.0000 C   0  0  0  0  0  0  0  0  0  0  0  0
    3.4023   -1.1853    0.0000 C   0  0  0  0  0  0  0  0  0  0  0  0
    2.0899   -1.9117    0.0000 C   0  0  0  0  0  0  0  0  0  0  0  0
    0.8046   -1.1384    0.0000 C   0  0  0  0  0  0  0  0  0  0  0  0
    0.8317    0.3614    0.0000 C   0  0  0  0  0  0  0  0  0  0  0  0
   -0.4536    1.1347    0.0000 C   0  0  0  0  0  0  0  0  0  0  0  0
   -1.7660    0.4083    0.0000 N   0  0  0  0  0  0  0  0  0  0  0  0
   -1.9497   -1.0804    0.0000 C   0  0  0  0  0  0  0  0  0  0  0  0
   -3.4223   -1.3658    0.0000 C   0  0  0  0  0  0  0  0  0  0  0  0
   -4.1487   -0.0534    0.0000 C   0  0  0  0  0  0  0  0  0  0  0  0
   -3.1250    1.0430    0.0000 C   0  0  0  0  0  0  0  0  0  0  0  0
   -1.6524    1.3284    0.0000 C   0  0  0  0  0  0  0  0  0  0  0  0
   -0.9260    0.0160    0.0000 C   0  0  0  0  0  0  0  0  0  0  0  0
    2.1441    1.0878    0.0000 C   0  0  0  0  0  0  0  0  0  0  0  0
  1  2  1  0
  2  3  2  0
  3  4  1  0
  4  5  2  0
  5  6  1  0
  6  7  1  0
  7  8  1  0
  8  9  1  0
  9 10  1  0
 10 11  1  0
 11 12  1  0
 12 13  1  0
 13 14  1  0
  6 15  2  0
 15  2  1  0
 12  8  1  0
 14  9  1  0
M  END
>  <ChemBL_ID>  (489) 
CHEMBL2030623

>  <Ki>  (489) 
251.0

>  <database>  (489) 
SRSLDB

$$$$

     RDKit          2D

 18 20  0  0  0  0  0  0  0  0999 V2000
    4.1511   -2.9452    0.0000 C   0  0  0  0  0  0  0  0  0  0  0  0
    4.0463   -1.4489    0.0000 O   0  0  0  0  0  0  0  0  0  0  0  0
    2.6980   -0.7915    0.0000 C   0  0  0  0  0  0  0  0  0  0  0  0
    1.4545   -1.6304    0.0000 C   0  0  0  0  0  0  0  0  0  0  0  0
    0.1063   -0.9730    0.0000 C   0  0  0  0  0  0  0  0  0  0  0  0
    0.0014    0.5233    0.0000 C   0  0  0  0  0  0  0  0  0  0  0  0
   -1.3468    1.1807    0.0000 C   0  0  0  0  0  0  0  0  0  0  0  0
   -2.5903    0.3418    0.0000 N   0  0  0  0  0  0  0  0  0  0  0  0
   -2.6424   -1.1573    0.0000 C   0  0  0  0  0  0  0  0  0  0  0  0
   -4.0843   -1.5709    0.0000 C   0  0  0  0  0  0  0  0  0  0  0  0
   -4.9232   -0.3275    0.0000 C   0  0  0  0  0  0  0  0  0  0  0  0
   -3.9999    0.8546    0.0000 C   0  0  0  0  0  0  0  0  0  0  0  0
   -2.5580    1.2683    0.0000 C   0  0  0  0  0  0  0  0  0  0  0  0
   -1.7191    0.0248    0.0000 C   0  0  0  0  0  0  0  0  0  0  0  0
    1.2449    1.3623    0.0000 C   0  0  0  0  0  0  0  0  0  0  0  0
    2.5932    0.7049    0.0000 C   0  0  0  0  0  0  0  0  0  0  0  0
    3.8366    1.5438    0.0000 O   0  0  0  0  0  0  0  0  0  0  0  0
    3.7318    3.0401    0.0000 C   0  0  0  0  0  0  0  0  0  0  0  0
  1  2  1  0
  2  3  1  0
  3  4  2  0
  4  5  1  0
  5  6  2  0
  6  7  1  0
  7  8  1  0
  8  9  1  0
  9 10  1  0
 10 11  1  0
 11 12  1  0
 12 13  1  0
 13 14  1  0
  6 15  1  0
 15 16  2  0
 16 17  1  0
 17 18  1  0
 16  3  1  0
 12  8  1  0
 14  9  1  0
M  END
>  <ChemBL_ID>  (490) 
CHEMBL2030624

>  <Ki>  (490) 
43.1

>  <database>  (490) 
SRSLDB

$$$$

     RDKit          2D

 12 13  0  0  0  0  0  0  0  0999 V2000
   -3.6254   -0.8152    0.0000 C   0  0  0  0  0  0  0  0  0  0  0  0
   -3.5812    0.6842    0.0000 C   0  0  0  0  0  0  0  0  0  0  0  0
   -2.2606    1.3956    0.0000 C   0  0  0  0  0  0  0  0  0  0  0  0
   -0.9842    0.6076    0.0000 C   0  0  0  0  0  0  0  0  0  0  0  0
    0.3364    1.3190    0.0000 C   0  0  0  0  0  0  0  0  0  0  0  0
    1.6127    0.5310    0.0000 N   0  0  0  0  0  0  0  0  0  0  0  0
    3.0004    1.1005    0.0000 C   0  0  0  0  0  0  0  0  0  0  0  0
    3.9708   -0.0433    0.0000 C   0  0  0  0  0  0  0  0  0  0  0  0
    3.1829   -1.3197    0.0000 C   0  0  0  0  0  0  0  0  0  0  0  0
    1.7255   -0.9647    0.0000 C   0  0  0  0  0  0  0  0  0  0  0  0
   -1.0284   -0.8917    0.0000 C   0  0  0  0  0  0  0  0  0  0  0  0
   -2.3490   -1.6031    0.0000 C   0  0  0  0  0  0  0  0  0  0  0  0
  1  2  2  0
  2  3  1  0
  3  4  2  0
  4  5  1  0
  5  6  1  0
  6  7  1  0
  7  8  1  0
  8  9  1  0
  9 10  1  0
  4 11  1  0
 11 12  2  0
 12  1  1  0
 10  6  1  0
M  END
>  <ChemBL_ID>  (491) 
CHEMBL2030631

>  <Ki>  (491) 
661.0

>  <database>  (491) 
SRSLDB

$$$$

     RDKit          2D

 19 20  0  0  0  0  0  0  0  0999 V2000
   -6.7358   -1.2999    0.0000 C   0  0  0  0  0  0  0  0  0  0  0  0
   -5.4775   -0.4834    0.0000 C   0  0  0  0  0  0  0  0  0  0  0  0
   -4.1413   -1.1648    0.0000 C   0  0  0  0  0  0  0  0  0  0  0  0
   -2.8830   -0.3483    0.0000 N   0  0  0  0  0  0  0  0  0  0  0  0
   -2.9610    1.1496    0.0000 C   0  0  0  0  0  0  0  0  0  0  0  0
   -4.2972    1.8311    0.0000 C   0  0  0  0  0  0  0  0  0  0  0  0
   -4.3752    3.3291    0.0000 C   0  0  0  0  0  0  0  0  0  0  0  0
   -1.5467   -1.0298    0.0000 C   0  0  0  0  0  0  0  0  0  0  0  0
   -0.2884   -0.2133    0.0000 C   0  0  0  0  0  0  0  0  0  0  0  0
    1.0479   -0.8947    0.0000 C   0  0  0  0  0  0  0  0  0  0  0  0
    1.2820   -2.3763    0.0000 C   0  0  0  0  0  0  0  0  0  0  0  0
    2.7634   -2.6115    0.0000 N   0  0  0  0  0  0  0  0  0  0  0  0
    3.4449   -1.2752    0.0000 C   0  0  0  0  0  0  0  0  0  0  0  0
    4.8939   -0.8875    0.0000 C   0  0  0  0  0  0  0  0  0  0  0  0
    5.2827    0.5613    0.0000 C   0  0  0  0  0  0  0  0  0  0  0  0
    4.2224    1.6223    0.0000 C   0  0  0  0  0  0  0  0  0  0  0  0
    4.6111    3.0710    0.0000 Br  0  0  0  0  0  0  0  0  0  0  0  0
    2.7733    1.2346    0.0000 C   0  0  0  0  0  0  0  0  0  0  0  0
    2.3846   -0.2142    0.0000 C   0  0  0  0  0  0  0  0  0  0  0  0
  1  2  2  0
  2  3  1  0
  3  4  1  0
  4  5  1  0
  5  6  1  0
  6  7  2  0
  4  8  1  0
  8  9  1  0
  9 10  1  0
 10 11  2  0
 11 12  1  0
 12 13  1  0
 13 14  2  0
 14 15  1  0
 15 16  2  0
 16 17  1  0
 16 18  1  0
 18 19  2  0
 19 10  1  0
 19 13  1  0
M  END
>  <Ki>  (492) 
97.723722095581

>  <database>  (492) 
SRSLDB

$$$$

     RDKit          2D

 20 21  0  0  0  0  0  0  0  0999 V2000
   -7.1331   -0.9126    0.0000 C   0  0  0  0  0  0  0  0  0  0  0  0
   -5.8143   -0.1980    0.0000 C   0  0  0  0  0  0  0  0  0  0  0  0
   -4.5360   -0.9828    0.0000 C   0  0  0  0  0  0  0  0  0  0  0  0
   -3.2172   -0.2681    0.0000 N   0  0  0  0  0  0  0  0  0  0  0  0
   -3.1767    1.2313    0.0000 C   0  0  0  0  0  0  0  0  0  0  0  0
   -4.4550    2.0161    0.0000 C   0  0  0  0  0  0  0  0  0  0  0  0
   -4.4145    3.5156    0.0000 C   0  0  0  0  0  0  0  0  0  0  0  0
   -1.9389   -1.0529    0.0000 C   0  0  0  0  0  0  0  0  0  0  0  0
   -0.6201   -0.3383    0.0000 C   0  0  0  0  0  0  0  0  0  0  0  0
    0.6582   -1.1231    0.0000 C   0  0  0  0  0  0  0  0  0  0  0  0
    0.7747   -2.6186    0.0000 C   0  0  0  0  0  0  0  0  0  0  0  0
    2.2330   -2.9700    0.0000 N   0  0  0  0  0  0  0  0  0  0  0  0
    3.0178   -1.6917    0.0000 C   0  0  0  0  0  0  0  0  0  0  0  0
    4.4929   -1.4195    0.0000 C   0  0  0  0  0  0  0  0  0  0  0  0
    4.9948   -0.0060    0.0000 C   0  0  0  0  0  0  0  0  0  0  0  0
    4.0215    1.1354    0.0000 C   0  0  0  0  0  0  0  0  0  0  0  0
    4.5234    2.5490    0.0000 O   0  0  0  0  0  0  0  0  0  0  0  0
    5.9985    2.8211    0.0000 C   0  0  0  0  0  0  0  0  0  0  0  0
    2.5464    0.8633    0.0000 C   0  0  0  0  0  0  0  0  0  0  0  0
    2.0445   -0.5502    0.0000 C   0  0  0  0  0  0  0  0  0  0  0  0
  1  2  2  0
  2  3  1  0
  3  4  1  0
  4  5  1  0
  5  6  1  0
  6  7  2  0
  4  8  1  0
  8  9  1  0
  9 10  1  0
 10 11  2  0
 11 12  1  0
 12 13  1  0
 13 14  2  0
 14 15  1  0
 15 16  2  0
 16 17  1  0
 17 18  1  0
 16 19  1  0
 19 20  2  0
 20 10  1  0
 20 13  1  0
M  END
>  <Ki>  (493) 
251.188643150957

>  <database>  (493) 
SRSLDB

$$$$

     RDKit          2D

 31 35  0  0  0  0  0  0  0  0999 V2000
   -5.7734   -3.3663    0.0000 C   0  0  0  0  0  0  0  0  0  0  0  0
   -6.9870   -2.4847    0.0000 C   0  0  0  0  0  0  0  0  0  0  0  0
   -6.8303   -0.9929    0.0000 C   0  0  0  0  0  0  0  0  0  0  0  0
   -5.4601   -0.3827    0.0000 C   0  0  0  0  0  0  0  0  0  0  0  0
   -5.3034    1.1091    0.0000 C   0  0  0  0  0  0  0  0  0  0  0  0
   -3.9331    1.7194    0.0000 N   0  0  0  0  0  0  0  0  0  0  0  0
   -2.7195    0.8378    0.0000 C   0  0  0  0  0  0  0  0  0  0  0  0
   -1.3493    1.4480    0.0000 C   0  0  0  0  0  0  0  0  0  0  0  0
   -1.1926    2.9398    0.0000 N   0  0  0  0  0  0  0  0  0  0  0  0
    0.1776    3.5500    0.0000 C   0  0  0  0  0  0  0  0  0  0  0  0
    1.3913    2.6685    0.0000 C   0  0  0  0  0  0  0  0  0  0  0  0
    2.8178    3.1321    0.0000 C   0  0  0  0  0  0  0  0  0  0  0  0
    3.6996    1.9187    0.0000 O   0  0  0  0  0  0  0  0  0  0  0  0
    2.8180    0.7050    0.0000 C   0  0  0  0  0  0  0  0  0  0  0  0
    2.2080   -0.6653    0.0000 C   0  0  0  0  0  0  0  0  0  0  0  0
    0.7163   -0.8222    0.0000 C   0  0  0  0  0  0  0  0  0  0  0  0
    0.1063   -2.1926    0.0000 C   0  0  0  0  0  0  0  0  0  0  0  0
    0.9880   -3.4061    0.0000 C   0  0  0  0  0  0  0  0  0  0  0  0
    2.4798   -3.2491    0.0000 C   0  0  0  0  0  0  0  0  0  0  0  0
    3.0898   -1.8788    0.0000 C   0  0  0  0  0  0  0  0  0  0  0  0
    4.1171   -0.0448    0.0000 C   0  0  0  0  0  0  0  0  0  0  0  0
    4.1172   -1.5448    0.0000 C   0  0  0  0  0  0  0  0  0  0  0  0
    5.4163   -2.2947    0.0000 C   0  0  0  0  0  0  0  0  0  0  0  0
    6.7153   -1.5446    0.0000 C   0  0  0  0  0  0  0  0  0  0  0  0
    6.7152   -0.0446    0.0000 C   0  0  0  0  0  0  0  0  0  0  0  0
    5.4161    0.7053    0.0000 C   0  0  0  0  0  0  0  0  0  0  0  0
    1.3914    1.1685    0.0000 O   0  0  0  0  0  0  0  0  0  0  0  0
   -2.4062    3.8214    0.0000 C   0  0  0  0  0  0  0  0  0  0  0  0
   -3.7765    3.2111    0.0000 C   0  0  0  0  0  0  0  0  0  0  0  0
   -4.2465   -1.2642    0.0000 C   0  0  0  0  0  0  0  0  0  0  0  0
   -4.4031   -2.7560    0.0000 C   0  0  0  0  0  0  0  0  0  0  0  0
  1  2  2  0
  2  3  1  0
  3  4  2  0
  4  5  1  0
  5  6  1  0
  6  7  1  0
  7  8  1  0
  8  9  1  0
  9 10  1  0
 11 10  1  6
 11 12  1  0
 12 13  1  0
 13 14  1  0
 14 15  1  0
 15 16  2  0
 16 17  1  0
 17 18  2  0
 18 19  1  0
 19 20  2  0
 14 21  1  1
 21 22  1  0
 22 23  1  0
 23 24  1  0
 24 25  1  0
 25 26  1  0
 14 27  1  0
  9 28  1  0
 28 29  1  0
  4 30  1  0
 30 31  2  0
 31  1  1  0
 29  6  1  0
 27 11  1  0
 20 15  1  0
 26 21  1  0
M  END
>  <Ki>  (494) 
17.7827941003892

>  <database>  (494) 
SRSLDB

$$$$

     RDKit          2D

 29 32  0  0  0  0  0  0  0  0999 V2000
   -7.3537   -2.5666    0.0000 C   0  0  0  0  0  0  0  0  0  0  0  0
   -8.2695   -1.3786    0.0000 C   0  0  0  0  0  0  0  0  0  0  0  0
   -7.6986    0.0085    0.0000 C   0  0  0  0  0  0  0  0  0  0  0  0
   -6.2118    0.2076    0.0000 C   0  0  0  0  0  0  0  0  0  0  0  0
   -5.6409    1.5947    0.0000 C   0  0  0  0  0  0  0  0  0  0  0  0
   -4.1542    1.7938    0.0000 N   0  0  0  0  0  0  0  0  0  0  0  0
   -3.2384    0.6058    0.0000 C   0  0  0  0  0  0  0  0  0  0  0  0
   -1.7516    0.8049    0.0000 C   0  0  0  0  0  0  0  0  0  0  0  0
   -1.1807    2.1920    0.0000 N   0  0  0  0  0  0  0  0  0  0  0  0
    0.3060    2.3911    0.0000 C   0  0  0  0  0  0  0  0  0  0  0  0
    1.2218    1.2031    0.0000 C   0  0  0  0  0  0  0  0  0  0  0  0
    2.7085    1.4022    0.0000 O   0  0  0  0  0  0  0  0  0  0  0  0
    3.6243    0.2142    0.0000 C   0  0  0  0  0  0  0  0  0  0  0  0
    5.1111    0.4133    0.0000 C   0  0  0  0  0  0  0  0  0  0  0  0
    6.0268   -0.7747    0.0000 C   0  0  0  0  0  0  0  0  0  0  0  0
    7.5136   -0.5756    0.0000 C   0  0  0  0  0  0  0  0  0  0  0  0
    8.0845    0.8115    0.0000 C   0  0  0  0  0  0  0  0  0  0  0  0
    7.1687    1.9995    0.0000 C   0  0  0  0  0  0  0  0  0  0  0  0
    5.6820    1.8004    0.0000 C   0  0  0  0  0  0  0  0  0  0  0  0
    3.0534   -1.1729    0.0000 C   0  0  0  0  0  0  0  0  0  0  0  0
    1.5667   -1.3720    0.0000 C   0  0  0  0  0  0  0  0  0  0  0  0
    0.9957   -2.7591    0.0000 C   0  0  0  0  0  0  0  0  0  0  0  0
    1.9115   -3.9471    0.0000 C   0  0  0  0  0  0  0  0  0  0  0  0
    3.3982   -3.7480    0.0000 C   0  0  0  0  0  0  0  0  0  0  0  0
    3.9692   -2.3609    0.0000 C   0  0  0  0  0  0  0  0  0  0  0  0
   -2.0965    3.3800    0.0000 C   0  0  0  0  0  0  0  0  0  0  0  0
   -3.5832    3.1809    0.0000 C   0  0  0  0  0  0  0  0  0  0  0  0
   -5.2960   -0.9804    0.0000 C   0  0  0  0  0  0  0  0  0  0  0  0
   -5.8670   -2.3675    0.0000 C   0  0  0  0  0  0  0  0  0  0  0  0
  1  2  2  0
  2  3  1  0
  3  4  2  0
  4  5  1  0
  5  6  1  0
  6  7  1  0
  7  8  1  0
  8  9  1  0
  9 10  1  0
 10 11  1  0
 11 12  1  0
 12 13  1  0
 13 14  1  0
 14 15  2  0
 15 16  1  0
 16 17  2  0
 17 18  1  0
 18 19  2  0
 13 20  1  0
 20 21  2  0
 21 22  1  0
 22 23  2  0
 23 24  1  0
 24 25  2  0
  9 26  1  0
 26 27  1  0
  4 28  1  0
 28 29  2  0
 29  1  1  0
 27  6  1  0
 19 14  1  0
 25 20  1  0
M  END
>  <Ki>  (495) 
11.2201845430196

>  <database>  (495) 
SRSLDB

$$$$

     RDKit          2D

 33 36  0  0  0  0  0  0  0  0999 V2000
   -6.3278    1.9939    0.0000 C   0  0  0  0  0  0  0  0  0  0  0  0
   -6.0048    0.5291    0.0000 C   0  0  0  0  0  0  0  0  0  0  0  0
   -5.6818   -0.9357    0.0000 C   0  0  0  0  0  0  0  0  0  0  0  0
   -4.5400    0.8521    0.0000 C   0  0  0  0  0  0  0  0  0  0  0  0
   -4.0873    2.2822    0.0000 O   0  0  0  0  0  0  0  0  0  0  0  0
   -3.5279   -0.2550    0.0000 O   0  0  0  0  0  0  0  0  0  0  0  0
   -2.0630    0.0680    0.0000 C   0  0  0  0  0  0  0  0  0  0  0  0
   -1.0509   -1.0390    0.0000 C   0  0  0  0  0  0  0  0  0  0  0  0
    0.4139   -0.7160    0.0000 N   0  0  0  0  0  0  0  0  0  0  0  0
    1.4260   -1.8231    0.0000 C   0  0  0  0  0  0  0  0  0  0  0  0
    2.8908   -1.5001    0.0000 C   0  0  0  0  0  0  0  0  0  0  0  0
    3.3435   -0.0700    0.0000 N   0  0  0  0  0  0  0  0  0  0  0  0
    4.8083    0.2530    0.0000 C   0  0  0  0  0  0  0  0  0  0  0  0
    5.2610    1.6830    0.0000 C   0  0  0  0  0  0  0  0  0  0  0  0
    6.7258    2.0061    0.0000 C   0  0  0  0  0  0  0  0  0  0  0  0
    7.7379    0.8990    0.0000 C   0  0  0  0  0  0  0  0  0  0  0  0
    9.2028    1.2220    0.0000 N   0  0  0  0  0  4  0  0  0  0  0  0
   10.2149    0.1149    0.0000 O   0  0  0  0  0  0  0  0  0  0  0  0
    9.6554    2.6521    0.0000 O   0  0  0  0  0  1  0  0  0  0  0  0
    7.2853   -0.5311    0.0000 C   0  0  0  0  0  0  0  0  0  0  0  0
    8.0451   -1.8244    0.0000 N   0  0  0  0  0  0  0  0  0  0  0  0
    7.0499   -2.9467    0.0000 O   0  0  0  0  0  0  0  0  0  0  0  0
    5.6750   -2.3470    0.0000 N   0  0  0  0  0  0  0  0  0  0  0  0
    5.8205   -0.8541    0.0000 C   0  0  0  0  0  0  0  0  0  0  0  0
    2.3314    1.0370    0.0000 C   0  0  0  0  0  0  0  0  0  0  0  0
    0.8666    0.7140    0.0000 C   0  0  0  0  0  0  0  0  0  0  0  0
   -7.4696    0.2061    0.0000 C   0  0  0  0  0  0  0  0  0  0  0  0
   -8.4817    1.3132    0.0000 C   0  0  0  0  0  0  0  0  0  0  0  0
   -9.9466    0.9902    0.0000 C   0  0  0  0  0  0  0  0  0  0  0  0
  -10.3992   -0.4399    0.0000 C   0  0  0  0  0  0  0  0  0  0  0  0
  -11.8640   -0.7629    0.0000 Cl  0  0  0  0  0  0  0  0  0  0  0  0
   -9.3871   -1.5470    0.0000 C   0  0  0  0  0  0  0  0  0  0  0  0
   -7.9223   -1.2240    0.0000 C   0  0  0  0  0  0  0  0  0  0  0  0
  1  2  1  0
  2  3  1  0
  2  4  1  0
  4  5  2  0
  4  6  1  0
  6  7  1  0
  7  8  1  0
  8  9  1  0
  9 10  1  0
 10 11  1  0
 11 12  1  0
 12 13  1  0
 13 14  2  0
 14 15  1  0
 15 16  2  0
 16 17  1  0
 17 18  2  0
 17 19  1  0
 16 20  1  0
 20 21  2  0
 21 22  1  0
 22 23  1  0
 23 24  2  0
 12 25  1  0
 25 26  1  0
  2 27  1  0
 27 28  2  0
 28 29  1  0
 29 30  2  0
 30 31  1  0
 30 32  1  0
 32 33  2  0
 26  9  1  0
 33 27  1  0
 24 13  1  0
 24 20  1  0
M  CHG  2  17   1  19  -1
M  END
>  <Ki>  (496) 
278.0

>  <database>  (496) 
SRSLDB

$$$$

     RDKit          2D

 32 35  0  0  0  0  0  0  0  0999 V2000
    4.5385   -0.8057    0.0000 O   0  0  0  0  0  0  0  0  0  0  0  0
    4.7520    0.6790    0.0000 C   0  0  0  0  0  0  0  0  0  0  0  0
    6.1446    1.2365    0.0000 C   0  0  0  0  0  0  0  0  0  0  0  0
    7.3237    0.3092    0.0000 C   0  0  0  0  0  0  0  0  0  0  0  0
    7.1101   -1.1755    0.0000 C   0  0  0  0  0  0  0  0  0  0  0  0
    8.2892   -2.1028    0.0000 C   0  0  0  0  0  0  0  0  0  0  0  0
    9.6817   -1.5454    0.0000 C   0  0  0  0  0  0  0  0  0  0  0  0
   10.8608   -2.4727    0.0000 Cl  0  0  0  0  0  0  0  0  0  0  0  0
    9.8953   -0.0607    0.0000 C   0  0  0  0  0  0  0  0  0  0  0  0
   11.2879    0.4968    0.0000 Cl  0  0  0  0  0  0  0  0  0  0  0  0
    8.7162    0.8666    0.0000 C   0  0  0  0  0  0  0  0  0  0  0  0
    3.5730    1.6063    0.0000 O   0  0  0  0  0  0  0  0  0  0  0  0
    2.1804    1.0489    0.0000 C   0  0  0  0  0  0  0  0  0  0  0  0
    1.0014    1.9762    0.0000 C   0  0  0  0  0  0  0  0  0  0  0  0
   -0.3912    1.4187    0.0000 N   0  0  0  0  0  0  0  0  0  0  0  0
   -1.5702    2.3460    0.0000 C   0  0  0  0  0  0  0  0  0  0  0  0
   -2.9628    1.7886    0.0000 C   0  0  0  0  0  0  0  0  0  0  0  0
   -3.1763    0.3039    0.0000 N   0  0  0  0  0  0  0  0  0  0  0  0
   -4.5689   -0.2536    0.0000 C   0  0  0  0  0  0  0  0  0  0  0  0
   -4.7824   -1.7383    0.0000 C   0  0  0  0  0  0  0  0  0  0  0  0
   -6.1750   -2.2957    0.0000 C   0  0  0  0  0  0  0  0  0  0  0  0
   -7.3541   -1.3685    0.0000 C   0  0  0  0  0  0  0  0  0  0  0  0
   -8.7466   -1.9259    0.0000 N   0  0  0  0  0  4  0  0  0  0  0  0
   -9.9257   -0.9986    0.0000 O   0  0  0  0  0  0  0  0  0  0  0  0
   -8.9602   -3.4106    0.0000 O   0  0  0  0  0  1  0  0  0  0  0  0
   -7.1405    0.1163    0.0000 C   0  0  0  0  0  0  0  0  0  0  0  0
   -8.1010    1.2684    0.0000 N   0  0  0  0  0  0  0  0  0  0  0  0
   -7.3020    2.5379    0.0000 O   0  0  0  0  0  0  0  0  0  0  0  0
   -5.8478    2.1704    0.0000 N   0  0  0  0  0  0  0  0  0  0  0  0
   -5.7480    0.6737    0.0000 C   0  0  0  0  0  0  0  0  0  0  0  0
   -1.9973   -0.6234    0.0000 C   0  0  0  0  0  0  0  0  0  0  0  0
   -0.6047   -0.0660    0.0000 C   0  0  0  0  0  0  0  0  0  0  0  0
  1  2  2  0
  2  3  1  0
  3  4  1  0
  4  5  2  0
  5  6  1  0
  6  7  2  0
  7  8  1  0
  7  9  1  0
  9 10  1  0
  9 11  2  0
  2 12  1  0
 12 13  1  0
 13 14  1  0
 14 15  1  0
 15 16  1  0
 16 17  1  0
 17 18  1  0
 18 19  1  0
 19 20  2  0
 20 21  1  0
 21 22  2  0
 22 23  1  0
 23 24  2  0
 23 25  1  0
 22 26  1  0
 26 27  2  0
 27 28  1  0
 28 29  1  0
 29 30  2  0
 18 31  1  0
 31 32  1  0
 11  4  1  0
 32 15  1  0
 30 19  1  0
 30 26  1  0
M  CHG  2  23   1  25  -1
M  END
>  <Ki>  (497) 
393.0

>  <database>  (497) 
SRSLDB

$$$$

     RDKit          2D

 35 39  0  0  0  0  0  0  0  0999 V2000
   -4.3633    2.4940    0.0000 O   0  0  0  0  0  0  0  0  0  0  0  0
   -4.8268    1.0674    0.0000 C   0  0  0  0  0  0  0  0  0  0  0  0
   -3.8231   -0.0474    0.0000 O   0  0  0  0  0  0  0  0  0  0  0  0
   -2.3559    0.2645    0.0000 C   0  0  0  0  0  0  0  0  0  0  0  0
   -1.3522   -0.8503    0.0000 C   0  0  0  0  0  0  0  0  0  0  0  0
    0.1150   -0.5384    0.0000 N   0  0  0  0  0  0  0  0  0  0  0  0
    1.1187   -1.6532    0.0000 C   0  0  0  0  0  0  0  0  0  0  0  0
    2.5859   -1.3413    0.0000 C   0  0  0  0  0  0  0  0  0  0  0  0
    3.0494    0.0852    0.0000 N   0  0  0  0  0  0  0  0  0  0  0  0
    4.5167    0.3971    0.0000 C   0  0  0  0  0  0  0  0  0  0  0  0
    4.9802    1.8236    0.0000 C   0  0  0  0  0  0  0  0  0  0  0  0
    6.4475    2.1355    0.0000 C   0  0  0  0  0  0  0  0  0  0  0  0
    7.4511    1.0207    0.0000 C   0  0  0  0  0  0  0  0  0  0  0  0
    8.9184    1.3326    0.0000 N   0  0  0  0  0  4  0  0  0  0  0  0
    9.9220    0.2178    0.0000 O   0  0  0  0  0  0  0  0  0  0  0  0
    9.3819    2.7591    0.0000 O   0  0  0  0  0  1  0  0  0  0  0  0
    6.9876   -0.4058    0.0000 C   0  0  0  0  0  0  0  0  0  0  0  0
    7.7375   -1.7049    0.0000 N   0  0  0  0  0  0  0  0  0  0  0  0
    6.7338   -2.8196    0.0000 O   0  0  0  0  0  0  0  0  0  0  0  0
    5.3635   -2.2095    0.0000 N   0  0  0  0  0  0  0  0  0  0  0  0
    5.5203   -0.7177    0.0000 C   0  0  0  0  0  0  0  0  0  0  0  0
    2.0458    1.2000    0.0000 C   0  0  0  0  0  0  0  0  0  0  0  0
    0.5785    0.8881    0.0000 C   0  0  0  0  0  0  0  0  0  0  0  0
   -6.2940    0.7555    0.0000 C   0  0  0  0  0  0  0  0  0  0  0  0
   -5.7322   -0.6352    0.0000 C   0  0  0  0  0  0  0  0  0  0  0  0
   -6.6557   -1.8172    0.0000 C   0  0  0  0  0  0  0  0  0  0  0  0
   -6.0938   -3.2080    0.0000 C   0  0  0  0  0  0  0  0  0  0  0  0
   -4.6084   -3.4168    0.0000 C   0  0  0  0  0  0  0  0  0  0  0  0
   -3.6849   -2.2348    0.0000 C   0  0  0  0  0  0  0  0  0  0  0  0
   -4.2468   -0.8440    0.0000 C   0  0  0  0  0  0  0  0  0  0  0  0
   -6.3464    2.2546    0.0000 C   0  0  0  0  0  0  0  0  0  0  0  0
   -7.6708    2.9589    0.0000 C   0  0  0  0  0  0  0  0  0  0  0  0
   -8.9429    2.1640    0.0000 C   0  0  0  0  0  0  0  0  0  0  0  0
   -8.8905    0.6649    0.0000 C   0  0  0  0  0  0  0  0  0  0  0  0
   -7.5661   -0.0393    0.0000 C   0  0  0  0  0  0  0  0  0  0  0  0
  1  2  2  0
  2  3  1  0
  3  4  1  0
  4  5  1  0
  5  6  1  0
  6  7  1  0
  7  8  1  0
  8  9  1  0
  9 10  1  0
 10 11  2  0
 11 12  1  0
 12 13  2  0
 13 14  1  0
 14 15  2  0
 14 16  1  0
 13 17  1  0
 17 18  2  0
 18 19  1  0
 19 20  1  0
 20 21  2  0
  9 22  1  0
 22 23  1  0
  2 24  1  0
 24 25  1  0
 25 26  2  0
 26 27  1  0
 27 28  2  0
 28 29  1  0
 29 30  2  0
 24 31  1  0
 31 32  1  0
 32 33  1  0
 33 34  1  0
 34 35  1  0
 23  6  1  0
 35 24  1  0
 21 10  1  0
 30 25  1  0
 21 17  1  0
M  CHG  2  14   1  16  -1
M  END
>  <Ki>  (498) 
56.8

>  <database>  (498) 
SRSLDB

$$$$

     RDKit          2D

 25 29  0  0  0  0  0  0  0  0999 V2000
   -2.4967    4.2197    0.0000 C   0  0  0  0  0  0  0  0  0  0  0  0
   -1.5496    3.0565    0.0000 C   0  0  0  0  0  0  0  0  0  0  0  0
   -2.0834    1.6547    0.0000 C   0  0  0  0  0  0  0  0  0  0  0  0
   -3.5643    1.4161    0.0000 C   0  0  0  0  0  0  0  0  0  0  0  0
   -4.0981    0.0143    0.0000 C   0  0  0  0  0  0  0  0  0  0  0  0
   -3.1510   -1.1489    0.0000 N   0  0  0  0  0  0  0  0  0  0  0  0
   -3.6848   -2.5507    0.0000 C   0  0  0  0  0  0  0  0  0  0  0  0
   -2.7377   -3.7139    0.0000 C   0  0  0  0  0  0  0  0  0  0  0  0
   -1.2568   -3.4753    0.0000 C   0  0  0  0  0  0  0  0  0  0  0  0
   -0.7230   -2.0735    0.0000 C   0  0  0  0  0  0  0  0  0  0  0  0
   -1.6701   -0.9103    0.0000 C   0  0  0  0  0  0  0  0  0  0  0  0
   -0.1879   -1.1410    0.0000 C   0  0  0  0  0  0  0  0  0  0  0  0
    0.9753   -0.1939    0.0000 C   0  0  0  0  0  0  0  0  0  0  0  0
    2.3771   -0.7277    0.0000 C   0  0  0  0  0  0  0  0  0  0  0  0
    3.5403    0.2194    0.0000 N   0  0  0  0  0  0  0  0  0  0  0  0
    4.9421   -0.3144    0.0000 C   0  0  0  0  0  0  0  0  0  0  0  0
    6.1053    0.6327    0.0000 C   0  0  0  0  0  0  0  0  0  0  0  0
    5.8666    2.1136    0.0000 O   0  0  0  0  0  0  0  0  0  0  0  0
    4.4648    2.6474    0.0000 C   0  0  0  0  0  0  0  0  0  0  0  0
    3.3016    1.7003    0.0000 C   0  0  0  0  0  0  0  0  0  0  0  0
    2.6157   -2.2086    0.0000 C   0  0  0  0  0  0  0  0  0  0  0  0
    1.4525   -3.1557    0.0000 C   0  0  0  0  0  0  0  0  0  0  0  0
    0.0507   -2.6219    0.0000 C   0  0  0  0  0  0  0  0  0  0  0  0
   -4.5114    2.5793    0.0000 C   0  0  0  0  0  0  0  0  0  0  0  0
   -3.9776    3.9811    0.0000 C   0  0  0  0  0  0  0  0  0  0  0  0
  1  2  2  0
  2  3  1  0
  3  4  2  0
  4  5  1  0
  5  6  1  0
  6  7  1  0
  7  8  1  0
  9  8  1  1
  9 10  1  0
 10 11  1  0
 11 12  1  0
 12 13  2  0
 13 14  1  0
 14 15  1  0
 15 16  1  0
 16 17  1  0
 17 18  1  0
 18 19  1  0
 19 20  1  0
 14 21  2  0
 21 22  1  0
 22 23  2  0
  4 24  1  0
 24 25  2  0
 25  1  1  0
 11  6  1  1
 23 12  1  0
 23  9  1  0
 20 15  1  0
M  END
>  <Ki>  (499) 
1034.0

>  <database>  (499) 
SRSLDB

$$$$

     RDKit          2D

 27 31  0  0  0  0  0  0  0  0999 V2000
   -5.5331    3.8981    0.0000 Cl  0  0  0  0  0  0  0  0  0  0  0  0
   -4.3918    2.9247    0.0000 C   0  0  0  0  0  0  0  0  0  0  0  0
   -2.9782    3.4264    0.0000 C   0  0  0  0  0  0  0  0  0  0  0  0
   -1.8369    2.4530    0.0000 C   0  0  0  0  0  0  0  0  0  0  0  0
   -0.4233    2.9547    0.0000 Cl  0  0  0  0  0  0  0  0  0  0  0  0
   -2.1093    0.9779    0.0000 C   0  0  0  0  0  0  0  0  0  0  0  0
   -3.5229    0.4763    0.0000 C   0  0  0  0  0  0  0  0  0  0  0  0
   -3.7953   -0.9988    0.0000 C   0  0  0  0  0  0  0  0  0  0  0  0
   -2.6540   -1.9722    0.0000 N   0  0  0  0  0  0  0  0  0  0  0  0
   -2.9263   -3.4473    0.0000 C   0  0  0  0  0  0  0  0  0  0  0  0
   -1.7851   -4.4207    0.0000 C   0  0  0  0  0  0  0  0  0  0  0  0
   -0.3714   -3.9190    0.0000 C   0  0  0  0  0  0  0  0  0  0  0  0
   -0.0991   -2.4439    0.0000 C   0  0  0  0  0  0  0  0  0  0  0  0
   -1.2404   -1.4705    0.0000 C   0  0  0  0  0  0  0  0  0  0  0  0
    0.2591   -1.4303    0.0000 C   0  0  0  0  0  0  0  0  0  0  0  0
    1.2325   -0.2890    0.0000 C   0  0  0  0  0  0  0  0  0  0  0  0
    2.7076   -0.5613    0.0000 C   0  0  0  0  0  0  0  0  0  0  0  0
    3.6810    0.5799    0.0000 N   0  0  0  0  0  0  0  0  0  0  0  0
    5.1560    0.3076    0.0000 C   0  0  0  0  0  0  0  0  0  0  0  0
    6.1294    1.4488    0.0000 C   0  0  0  0  0  0  0  0  0  0  0  0
    5.6278    2.8625    0.0000 O   0  0  0  0  0  0  0  0  0  0  0  0
    4.1527    3.1348    0.0000 C   0  0  0  0  0  0  0  0  0  0  0  0
    3.1793    1.9936    0.0000 C   0  0  0  0  0  0  0  0  0  0  0  0
    3.2092   -1.9750    0.0000 C   0  0  0  0  0  0  0  0  0  0  0  0
    2.2358   -3.1162    0.0000 C   0  0  0  0  0  0  0  0  0  0  0  0
    0.7608   -2.8439    0.0000 C   0  0  0  0  0  0  0  0  0  0  0  0
   -4.6642    1.4497    0.0000 C   0  0  0  0  0  0  0  0  0  0  0  0
  1  2  1  0
  2  3  2  0
  3  4  1  0
  4  5  1  0
  4  6  2  0
  6  7  1  0
  7  8  1  0
  8  9  1  0
  9 10  1  0
 10 11  1  0
 12 11  1  1
 12 13  1  0
 13 14  1  0
 14 15  1  0
 15 16  2  0
 16 17  1  0
 17 18  1  0
 18 19  1  0
 19 20  1  0
 20 21  1  0
 21 22  1  0
 22 23  1  0
 17 24  2  0
 24 25  1  0
 25 26  2  0
  7 27  2  0
 27  2  1  0
 14  9  1  1
 26 15  1  0
 26 12  1  0
 23 18  1  0
M  END
>  <Ki>  (500) 
92.0

>  <database>  (500) 
SRSLDB

$$$$

     RDKit          2D

 26 30  0  0  0  0  0  0  0  0999 V2000
   -5.9232    1.7830    0.0000 F   0  0  0  0  0  0  0  0  0  0  0  0
   -4.4661    2.1392    0.0000 C   0  0  0  0  0  0  0  0  0  0  0  0
   -4.0460    3.5792    0.0000 C   0  0  0  0  0  0  0  0  0  0  0  0
   -2.5889    3.9354    0.0000 C   0  0  0  0  0  0  0  0  0  0  0  0
   -1.5519    2.8516    0.0000 C   0  0  0  0  0  0  0  0  0  0  0  0
   -1.9720    1.4116    0.0000 C   0  0  0  0  0  0  0  0  0  0  0  0
   -3.4291    1.0554    0.0000 C   0  0  0  0  0  0  0  0  0  0  0  0
   -3.8492   -0.3845    0.0000 C   0  0  0  0  0  0  0  0  0  0  0  0
   -2.8122   -1.4683    0.0000 N   0  0  0  0  0  0  0  0  0  0  0  0
   -3.2322   -2.9083    0.0000 C   0  0  0  0  0  0  0  0  0  0  0  0
   -2.1952   -3.9921    0.0000 C   0  0  0  0  0  0  0  0  0  0  0  0
   -0.7381   -3.6359    0.0000 C   0  0  0  0  0  0  0  0  0  0  0  0
   -0.3180   -2.1959    0.0000 C   0  0  0  0  0  0  0  0  0  0  0  0
   -1.3551   -1.1121    0.0000 C   0  0  0  0  0  0  0  0  0  0  0  0
    0.1408   -1.2236    0.0000 C   0  0  0  0  0  0  0  0  0  0  0  0
    1.2246   -0.1866    0.0000 C   0  0  0  0  0  0  0  0  0  0  0  0
    2.6646   -0.6067    0.0000 C   0  0  0  0  0  0  0  0  0  0  0  0
    3.7483    0.4303    0.0000 N   0  0  0  0  0  0  0  0  0  0  0  0
    5.1883    0.0102    0.0000 C   0  0  0  0  0  0  0  0  0  0  0  0
    6.2721    1.0472    0.0000 C   0  0  0  0  0  0  0  0  0  0  0  0
    5.9159    2.5043    0.0000 O   0  0  0  0  0  0  0  0  0  0  0  0
    4.4759    2.9244    0.0000 C   0  0  0  0  0  0  0  0  0  0  0  0
    3.3922    1.8874    0.0000 C   0  0  0  0  0  0  0  0  0  0  0  0
    3.0207   -2.0638    0.0000 C   0  0  0  0  0  0  0  0  0  0  0  0
    1.9369   -3.1008    0.0000 C   0  0  0  0  0  0  0  0  0  0  0  0
    0.4970   -2.6807    0.0000 C   0  0  0  0  0  0  0  0  0  0  0  0
  1  2  1  0
  2  3  2  0
  3  4  1  0
  4  5  2  0
  5  6  1  0
  6  7  2  0
  7  8  1  0
  8  9  1  0
  9 10  1  0
 10 11  1  0
 12 11  1  1
 12 13  1  0
 13 14  1  0
 14 15  1  0
 15 16  2  0
 16 17  1  0
 17 18  1  0
 18 19  1  0
 19 20  1  0
 20 21  1  0
 21 22  1  0
 22 23  1  0
 17 24  2  0
 24 25  1  0
 25 26  2  0
  7  2  1  0
 14  9  1  1
 26 15  1  0
 26 12  1  0
 23 18  1  0
M  END
>  <Ki>  (501) 
1258.0

>  <database>  (501) 
SRSLDB

$$$$

     RDKit          2D

 25 29  0  0  0  0  0  0  0  0999 V2000
   -2.4967    4.2197    0.0000 C   0  0  0  0  0  0  0  0  0  0  0  0
   -1.5496    3.0565    0.0000 C   0  0  0  0  0  0  0  0  0  0  0  0
   -2.0834    1.6547    0.0000 C   0  0  0  0  0  0  0  0  0  0  0  0
   -3.5643    1.4161    0.0000 C   0  0  0  0  0  0  0  0  0  0  0  0
   -4.0981    0.0143    0.0000 C   0  0  0  0  0  0  0  0  0  0  0  0
   -3.1510   -1.1489    0.0000 N   0  0  0  0  0  0  0  0  0  0  0  0
   -3.6848   -2.5507    0.0000 C   0  0  0  0  0  0  0  0  0  0  0  0
   -2.7377   -3.7139    0.0000 C   0  0  0  0  0  0  0  0  0  0  0  0
   -1.2568   -3.4753    0.0000 C   0  0  0  0  0  0  0  0  0  0  0  0
   -0.7230   -2.0735    0.0000 C   0  0  0  0  0  0  0  0  0  0  0  0
   -1.6701   -0.9103    0.0000 C   0  0  0  0  0  0  0  0  0  0  0  0
   -0.1879   -1.1410    0.0000 C   0  0  0  0  0  0  0  0  0  0  0  0
    0.9753   -0.1939    0.0000 C   0  0  0  0  0  0  0  0  0  0  0  0
    2.3771   -0.7277    0.0000 C   0  0  0  0  0  0  0  0  0  0  0  0
    3.5403    0.2194    0.0000 N   0  0  0  0  0  0  0  0  0  0  0  0
    4.9421   -0.3144    0.0000 C   0  0  0  0  0  0  0  0  0  0  0  0
    6.1053    0.6327    0.0000 C   0  0  0  0  0  0  0  0  0  0  0  0
    5.8666    2.1136    0.0000 C   0  0  0  0  0  0  0  0  0  0  0  0
    4.4648    2.6474    0.0000 C   0  0  0  0  0  0  0  0  0  0  0  0
    3.3016    1.7003    0.0000 C   0  0  0  0  0  0  0  0  0  0  0  0
    2.6157   -2.2086    0.0000 C   0  0  0  0  0  0  0  0  0  0  0  0
    1.4525   -3.1557    0.0000 C   0  0  0  0  0  0  0  0  0  0  0  0
    0.0507   -2.6219    0.0000 C   0  0  0  0  0  0  0  0  0  0  0  0
   -4.5114    2.5793    0.0000 C   0  0  0  0  0  0  0  0  0  0  0  0
   -3.9776    3.9811    0.0000 C   0  0  0  0  0  0  0  0  0  0  0  0
  1  2  2  0
  2  3  1  0
  3  4  2  0
  4  5  1  0
  5  6  1  0
  6  7  1  0
  7  8  1  0
  9  8  1  1
  9 10  1  0
 10 11  1  0
 11 12  1  0
 12 13  2  0
 13 14  1  0
 14 15  1  0
 15 16  1  0
 16 17  1  0
 17 18  1  0
 18 19  1  0
 19 20  1  0
 14 21  2  0
 21 22  1  0
 22 23  2  0
  4 24  1  0
 24 25  2  0
 25  1  1  0
 11  6  1  1
 23 12  1  0
 23  9  1  0
 20 15  1  0
M  END
>  <Ki>  (502) 
318.0

>  <database>  (502) 
SRSLDB

$$$$

     RDKit          2D

 26 30  0  0  0  0  0  0  0  0999 V2000
   -5.5130    4.0616    0.0000 Cl  0  0  0  0  0  0  0  0  0  0  0  0
   -4.3806    3.0779    0.0000 C   0  0  0  0  0  0  0  0  0  0  0  0
   -2.9625    3.5669    0.0000 C   0  0  0  0  0  0  0  0  0  0  0  0
   -1.8300    2.5832    0.0000 C   0  0  0  0  0  0  0  0  0  0  0  0
   -2.1156    1.1107    0.0000 C   0  0  0  0  0  0  0  0  0  0  0  0
   -3.5337    0.6218    0.0000 C   0  0  0  0  0  0  0  0  0  0  0  0
   -3.8193   -0.8508    0.0000 C   0  0  0  0  0  0  0  0  0  0  0  0
   -2.6869   -1.8344    0.0000 N   0  0  0  0  0  0  0  0  0  0  0  0
   -2.9725   -3.3070    0.0000 C   0  0  0  0  0  0  0  0  0  0  0  0
   -1.8401   -4.2906    0.0000 C   0  0  0  0  0  0  0  0  0  0  0  0
   -0.4220   -3.8017    0.0000 C   0  0  0  0  0  0  0  0  0  0  0  0
   -0.1364   -2.3292    0.0000 C   0  0  0  0  0  0  0  0  0  0  0  0
   -1.2688   -1.3455    0.0000 C   0  0  0  0  0  0  0  0  0  0  0  0
    0.2310   -1.3187    0.0000 C   0  0  0  0  0  0  0  0  0  0  0  0
    1.2146   -0.1863    0.0000 C   0  0  0  0  0  0  0  0  0  0  0  0
    2.6871   -0.4719    0.0000 C   0  0  0  0  0  0  0  0  0  0  0  0
    3.6708    0.6605    0.0000 N   0  0  0  0  0  0  0  0  0  0  0  0
    5.1433    0.3749    0.0000 C   0  0  0  0  0  0  0  0  0  0  0  0
    6.1270    1.5074    0.0000 C   0  0  0  0  0  0  0  0  0  0  0  0
    5.6381    2.9255    0.0000 C   0  0  0  0  0  0  0  0  0  0  0  0
    4.1655    3.2111    0.0000 C   0  0  0  0  0  0  0  0  0  0  0  0
    3.1819    2.0786    0.0000 C   0  0  0  0  0  0  0  0  0  0  0  0
    3.1761   -1.8900    0.0000 C   0  0  0  0  0  0  0  0  0  0  0  0
    2.1924   -3.0224    0.0000 C   0  0  0  0  0  0  0  0  0  0  0  0
    0.7199   -2.7368    0.0000 C   0  0  0  0  0  0  0  0  0  0  0  0
   -4.6662    1.6054    0.0000 C   0  0  0  0  0  0  0  0  0  0  0  0
  1  2  1  0
  2  3  2  0
  3  4  1  0
  4  5  2  0
  5  6  1  0
  6  7  1  0
  7  8  1  0
  8  9  1  0
  9 10  1  0
 11 10  1  1
 11 12  1  0
 12 13  1  0
 13 14  1  0
 14 15  2  0
 15 16  1  0
 16 17  1  0
 17 18  1  0
 18 19  1  0
 19 20  1  0
 20 21  1  0
 21 22  1  0
 16 23  2  0
 23 24  1  0
 24 25  2  0
  6 26  2  0
 26  2  1  0
 13  8  1  1
 25 14  1  0
 25 11  1  0
 22 17  1  0
M  END
>  <Ki>  (503) 
746.0

>  <database>  (503) 
SRSLDB

$$$$

     RDKit          2D

 28 33  0  0  0  0  0  0  0  0999 V2000
   -2.8345    4.3973    0.0000 C   0  0  0  0  0  0  0  0  0  0  0  0
   -2.0270    3.1332    0.0000 C   0  0  0  0  0  0  0  0  0  0  0  0
   -2.7180    1.8018    0.0000 C   0  0  0  0  0  0  0  0  0  0  0  0
   -4.2165    1.7346    0.0000 C   0  0  0  0  0  0  0  0  0  0  0  0
   -4.9075    0.4032    0.0000 C   0  0  0  0  0  0  0  0  0  0  0  0
   -4.1001   -0.8609    0.0000 N   0  0  0  0  0  0  0  0  0  0  0  0
   -4.7911   -2.1922    0.0000 C   0  0  0  0  0  0  0  0  0  0  0  0
   -3.9836   -3.4563    0.0000 C   0  0  0  0  0  0  0  0  0  0  0  0
   -2.4851   -3.3891    0.0000 C   0  0  0  0  0  0  0  0  0  0  0  0
   -1.7941   -2.0578    0.0000 C   0  0  0  0  0  0  0  0  0  0  0  0
   -2.6016   -0.7936    0.0000 C   0  0  0  0  0  0  0  0  0  0  0  0
   -1.1556   -1.1928    0.0000 C   0  0  0  0  0  0  0  0  0  0  0  0
    0.1085   -0.3853    0.0000 C   0  0  0  0  0  0  0  0  0  0  0  0
    1.4398   -1.0763    0.0000 C   0  0  0  0  0  0  0  0  0  0  0  0
    2.7039   -0.2688    0.0000 C   0  0  0  0  0  0  0  0  0  0  0  0
    2.6367    1.2297    0.0000 C   0  0  0  0  0  0  0  0  0  0  0  0
    3.9008    2.0371    0.0000 C   0  0  0  0  0  0  0  0  0  0  0  0
    5.2322    1.3461    0.0000 C   0  0  0  0  0  0  0  0  0  0  0  0
    5.2994   -0.1524    0.0000 C   0  0  0  0  0  0  0  0  0  0  0  0
    4.0353   -0.9598    0.0000 C   0  0  0  0  0  0  0  0  0  0  0  0
    6.7453   -0.5515    0.0000 O   0  0  0  0  0  0  0  0  0  0  0  0
    7.5717    0.7003    0.0000 C   0  0  0  0  0  0  0  0  0  0  0  0
    6.6365    1.8731    0.0000 O   0  0  0  0  0  0  0  0  0  0  0  0
    1.5071   -2.5748    0.0000 C   0  0  0  0  0  0  0  0  0  0  0  0
    0.2429   -3.3823    0.0000 C   0  0  0  0  0  0  0  0  0  0  0  0
   -1.0884   -2.6913    0.0000 C   0  0  0  0  0  0  0  0  0  0  0  0
   -5.0240    2.9987    0.0000 C   0  0  0  0  0  0  0  0  0  0  0  0
   -4.3330    4.3300    0.0000 C   0  0  0  0  0  0  0  0  0  0  0  0
  1  2  2  0
  2  3  1  0
  3  4  2  0
  4  5  1  0
  5  6  1  0
  6  7  1  0
  7  8  1  0
  9  8  1  1
  9 10  1  0
 10 11  1  0
 11 12  1  0
 12 13  2  0
 13 14  1  0
 14 15  1  0
 15 16  2  0
 16 17  1  0
 17 18  2  0
 18 19  1  0
 19 20  2  0
 19 21  1  0
 21 22  1  0
 22 23  1  0
 14 24  2  0
 24 25  1  0
 25 26  2  0
  4 27  1  0
 27 28  2  0
 28  1  1  0
 11  6  1  1
 26 12  1  0
 26  9  1  0
 20 15  1  0
 23 18  1  0
M  END
>  <Ki>  (504) 
723.0

>  <database>  (504) 
SRSLDB

$$$$

     RDKit          2D

 23 26  0  0  0  0  0  0  0  0999 V2000
   -5.3425   -3.0750    0.0000 C   0  0  0  0  0  0  0  0  0  0  0  0
   -5.0598   -1.6019    0.0000 N   0  0  0  0  0  0  0  0  0  0  0  0
   -6.1942   -0.6205    0.0000 C   0  0  0  0  0  0  0  0  0  0  0  0
   -5.9114    0.8526    0.0000 C   0  0  0  0  0  0  0  0  0  0  0  0
   -4.4943    1.3443    0.0000 C   0  0  0  0  0  0  0  0  0  0  0  0
   -3.3599    0.3629    0.0000 C   0  0  0  0  0  0  0  0  0  0  0  0
   -3.6427   -1.1102    0.0000 C   0  0  0  0  0  0  0  0  0  0  0  0
   -2.4468   -0.2047    0.0000 C   0  0  0  0  0  0  0  0  0  0  0  0
   -0.9737   -0.4874    0.0000 C   0  0  0  0  0  0  0  0  0  0  0  0
    0.0077    0.6469    0.0000 C   0  0  0  0  0  0  0  0  0  0  0  0
    1.4808    0.3642    0.0000 C   0  0  0  0  0  0  0  0  0  0  0  0
    1.9725   -1.0529    0.0000 C   0  0  0  0  0  0  0  0  0  0  0  0
    3.4456   -1.3357    0.0000 C   0  0  0  0  0  0  0  0  0  0  0  0
    4.4270   -0.2013    0.0000 C   0  0  0  0  0  0  0  0  0  0  0  0
    5.9001   -0.4841    0.0000 C   0  0  0  0  0  0  0  0  0  0  0  0
    7.3732   -0.7668    0.0000 F   0  0  0  0  0  0  0  0  0  0  0  0
    5.6174   -1.9572    0.0000 F   0  0  0  0  0  0  0  0  0  0  0  0
    6.1829    0.9890    0.0000 F   0  0  0  0  0  0  0  0  0  0  0  0
    3.9353    1.2158    0.0000 C   0  0  0  0  0  0  0  0  0  0  0  0
    2.4622    1.4986    0.0000 C   0  0  0  0  0  0  0  0  0  0  0  0
   -0.4840    2.0641    0.0000 C   0  0  0  0  0  0  0  0  0  0  0  0
   -1.9571    2.3468    0.0000 C   0  0  0  0  0  0  0  0  0  0  0  0
   -2.9385    1.2124    0.0000 C   0  0  0  0  0  0  0  0  0  0  0  0
  1  2  1  0
  2  3  1  0
  3  4  1  0
  5  4  1  6
  5  6  1  0
  6  7  1  0
  7  8  1  0
  8  9  2  0
  9 10  1  0
 10 11  1  0
 11 12  2  0
 12 13  1  0
 13 14  2  0
 14 15  1  0
 15 16  1  0
 15 17  1  0
 15 18  1  0
 14 19  1  0
 19 20  2  0
 10 21  2  0
 21 22  1  0
 22 23  2  0
  7  2  1  6
 23  8  1  0
 23  5  1  0
 20 11  1  0
M  END
>  <Ki>  (505) 
43.0

>  <database>  (505) 
SRSLDB

$$$$

     RDKit          2D

 30 34  0  0  0  0  0  0  0  0999 V2000
   -8.6447    2.9605    0.0000 F   0  0  0  0  0  0  0  0  0  0  0  0
   -7.4017    2.1209    0.0000 C   0  0  0  0  0  0  0  0  0  0  0  0
   -6.5620    3.3638    0.0000 F   0  0  0  0  0  0  0  0  0  0  0  0
   -8.2414    0.8779    0.0000 F   0  0  0  0  0  0  0  0  0  0  0  0
   -6.1588    1.2812    0.0000 C   0  0  0  0  0  0  0  0  0  0  0  0
   -4.8101    1.9377    0.0000 C   0  0  0  0  0  0  0  0  0  0  0  0
   -3.5672    1.0981    0.0000 C   0  0  0  0  0  0  0  0  0  0  0  0
   -3.6729   -0.3982    0.0000 C   0  0  0  0  0  0  0  0  0  0  0  0
   -2.4299   -1.2379    0.0000 C   0  0  0  0  0  0  0  0  0  0  0  0
   -2.5356   -2.7342    0.0000 C   0  0  0  0  0  0  0  0  0  0  0  0
   -1.2927   -3.5739    0.0000 C   0  0  0  0  0  0  0  0  0  0  0  0
    0.0560   -2.9173    0.0000 C   0  0  0  0  0  0  0  0  0  0  0  0
    0.1617   -1.4210    0.0000 C   0  0  0  0  0  0  0  0  0  0  0  0
   -1.0813   -0.5813    0.0000 C   0  0  0  0  0  0  0  0  0  0  0  0
    1.6174   -1.0592    0.0000 C   0  0  0  0  0  0  0  0  0  0  0  0
    2.4114   -2.3318    0.0000 C   0  0  0  0  0  0  0  0  0  0  0  0
    1.4463   -3.4802    0.0000 C   0  0  0  0  0  0  0  0  0  0  0  0
    2.9306   -3.7565    0.0000 C   0  0  0  0  0  0  0  0  0  0  0  0
    3.7703   -2.5136    0.0000 C   0  0  0  0  0  0  0  0  0  0  0  0
    3.1137   -1.1649    0.0000 N   0  0  0  0  0  0  0  0  0  0  0  0
    3.9534    0.0781    0.0000 C   0  0  0  0  0  0  0  0  0  0  0  0
    5.4496   -0.0277    0.0000 C   0  0  0  0  0  0  0  0  0  0  0  0
    6.2893    1.2153    0.0000 C   0  0  0  0  0  0  0  0  0  0  0  0
    7.7856    1.1096    0.0000 C   0  0  0  0  0  0  0  0  0  0  0  0
    8.6253    2.3525    0.0000 C   0  0  0  0  0  0  0  0  0  0  0  0
    7.9687    3.7012    0.0000 C   0  0  0  0  0  0  0  0  0  0  0  0
    6.4724    3.8069    0.0000 C   0  0  0  0  0  0  0  0  0  0  0  0
    5.6327    2.5640    0.0000 C   0  0  0  0  0  0  0  0  0  0  0  0
   -5.0215   -1.0548    0.0000 C   0  0  0  0  0  0  0  0  0  0  0  0
   -6.2645   -0.2151    0.0000 C   0  0  0  0  0  0  0  0  0  0  0  0
  1  2  1  0
  2  3  1  0
  2  4  1  0
  2  5  1  0
  5  6  2  0
  6  7  1  0
  7  8  2  0
  8  9  1  0
  9 10  2  0
 10 11  1  0
 11 12  2  0
 12 13  1  0
 13 14  2  0
 13 15  1  0
 15 16  1  0
 16 17  1  0
 17 18  1  6
 18 19  1  0
 19 20  1  0
 20 21  1  0
 21 22  1  0
 22 23  1  0
 23 24  2  0
 24 25  1  0
 25 26  2  0
 26 27  1  0
 27 28  2  0
  8 29  1  0
 29 30  2  0
 30  5  1  0
 14  9  1  0
 15 20  1  6
 28 23  1  0
 17 12  1  0
M  END
>  <Ki>  (506) 
166.0

>  <database>  (506) 
SRSLDB

$$$$

     RDKit          2D

 20 23  0  0  0  0  0  0  0  0999 V2000
   -6.2404   -1.3019    0.0000 C   0  0  0  0  0  0  0  0  0  0  0  0
   -5.1102   -0.3157    0.0000 C   0  0  0  0  0  0  0  0  0  0  0  0
   -5.3992    1.1563    0.0000 C   0  0  0  0  0  0  0  0  0  0  0  0
   -4.2690    2.1425    0.0000 C   0  0  0  0  0  0  0  0  0  0  0  0
   -2.8498    1.6567    0.0000 C   0  0  0  0  0  0  0  0  0  0  0  0
   -2.5608    0.1848    0.0000 C   0  0  0  0  0  0  0  0  0  0  0  0
   -1.1416   -0.3009    0.0000 C   0  0  0  0  0  0  0  0  0  0  0  0
   -0.8527   -1.7728    0.0000 C   0  0  0  0  0  0  0  0  0  0  0  0
    0.5665   -2.2585    0.0000 C   0  0  0  0  0  0  0  0  0  0  0  0
    1.6968   -1.2723    0.0000 C   0  0  0  0  0  0  0  0  0  0  0  0
    1.4078    0.1996    0.0000 C   0  0  0  0  0  0  0  0  0  0  0  0
   -0.0114    0.6853    0.0000 C   0  0  0  0  0  0  0  0  0  0  0  0
    2.7184    0.9293    0.0000 C   0  0  0  0  0  0  0  0  0  0  0  0
    3.8173   -0.0916    0.0000 C   0  0  0  0  0  0  0  0  0  0  0  0
    3.1859   -1.4523    0.0000 C   0  0  0  0  0  0  0  0  0  0  0  0
    4.6908   -1.3312    0.0000 C   0  0  0  0  0  0  0  0  0  0  0  0
    5.1765    0.0880    0.0000 C   0  0  0  0  0  0  0  0  0  0  0  0
    4.1903    1.2183    0.0000 N   0  0  0  0  0  0  0  0  0  0  0  0
    4.6760    2.6374    0.0000 C   0  0  0  0  0  0  0  0  0  0  0  0
   -3.6910   -0.8014    0.0000 C   0  0  0  0  0  0  0  0  0  0  0  0
  1  2  1  0
  2  3  2  0
  3  4  1  0
  4  5  2  0
  5  6  1  0
  6  7  1  0
  7  8  2  0
  8  9  1  0
  9 10  2  0
 10 11  1  0
 11 12  2  0
 11 13  1  0
 13 14  1  0
 14 15  1  0
 15 16  1  6
 16 17  1  0
 17 18  1  0
 18 19  1  0
  6 20  2  0
 20  2  1  0
 12  7  1  0
 13 18  1  6
 15 10  1  0
M  END
>  <Ki>  (507) 
133.0

>  <database>  (507) 
SRSLDB

$$$$

     RDKit          2D

 29 34  0  0  0  0  0  0  0  0999 V2000
   -9.1822    0.3440    0.0000 C   0  0  0  0  0  0  0  0  0  0  0  0
   -7.8029    0.9335    0.0000 C   0  0  0  0  0  0  0  0  0  0  0  0
   -7.6237    2.4227    0.0000 C   0  0  0  0  0  0  0  0  0  0  0  0
   -6.2444    3.0122    0.0000 C   0  0  0  0  0  0  0  0  0  0  0  0
   -5.0443    2.1124    0.0000 C   0  0  0  0  0  0  0  0  0  0  0  0
   -5.2234    0.6232    0.0000 C   0  0  0  0  0  0  0  0  0  0  0  0
   -4.0232   -0.2766    0.0000 C   0  0  0  0  0  0  0  0  0  0  0  0
   -4.2024   -1.7659    0.0000 C   0  0  0  0  0  0  0  0  0  0  0  0
   -3.0022   -2.6656    0.0000 C   0  0  0  0  0  0  0  0  0  0  0  0
   -1.6229   -2.0762    0.0000 C   0  0  0  0  0  0  0  0  0  0  0  0
   -1.4438   -0.5869    0.0000 C   0  0  0  0  0  0  0  0  0  0  0  0
   -2.6439    0.3129    0.0000 C   0  0  0  0  0  0  0  0  0  0  0  0
    0.0280   -0.2971    0.0000 C   0  0  0  0  0  0  0  0  0  0  0  0
    0.7584   -1.6072    0.0000 C   0  0  0  0  0  0  0  0  0  0  0  0
   -0.2619   -2.7067    0.0000 C   0  0  0  0  0  0  0  0  0  0  0  0
    1.2069   -3.0557    0.0000 C   0  0  0  0  0  0  0  0  0  0  0  0
    2.1067   -1.8555    0.0000 C   0  0  0  0  0  0  0  0  0  0  0  0
    1.5172   -0.4762    0.0000 N   0  0  0  0  0  0  0  0  0  0  0  0
    2.4170    0.7240    0.0000 C   0  0  0  0  0  0  0  0  0  0  0  0
    3.9063    0.5448    0.0000 C   0  0  0  0  0  0  0  0  0  0  0  0
    4.4958   -0.8345    0.0000 C   0  0  0  0  0  0  0  0  0  0  0  0
    5.9850   -1.0136    0.0000 C   0  0  0  0  0  0  0  0  0  0  0  0
    6.8848    0.1865    0.0000 C   0  0  0  0  0  0  0  0  0  0  0  0
    6.2953    1.5658    0.0000 C   0  0  0  0  0  0  0  0  0  0  0  0
    4.8061    1.7450    0.0000 C   0  0  0  0  0  0  0  0  0  0  0  0
    7.4250    2.5527    0.0000 O   0  0  0  0  0  0  0  0  0  0  0  0
    8.7126    1.7833    0.0000 C   0  0  0  0  0  0  0  0  0  0  0  0
    8.3788    0.3209    0.0000 O   0  0  0  0  0  0  0  0  0  0  0  0
   -6.6027    0.0337    0.0000 C   0  0  0  0  0  0  0  0  0  0  0  0
  1  2  1  0
  2  3  2  0
  3  4  1  0
  4  5  2  0
  5  6  1  0
  6  7  1  0
  7  8  2  0
  8  9  1  0
  9 10  2  0
 10 11  1  0
 11 12  2  0
 11 13  1  0
 13 14  1  0
 14 15  1  0
 15 16  1  6
 16 17  1  0
 17 18  1  0
 18 19  1  0
 19 20  1  0
 20 21  2  0
 21 22  1  0
 22 23  2  0
 23 24  1  0
 24 25  2  0
 24 26  1  0
 26 27  1  0
 27 28  1  0
  6 29  2  0
 29  2  1  0
 12  7  1  0
 13 18  1  6
 25 20  1  0
 15 10  1  0
 28 23  1  0
M  END
>  <Ki>  (508) 
828.0

>  <database>  (508) 
SRSLDB

$$$$

     RDKit          2D

 29 33  0  0  0  0  0  0  0  0999 V2000
   -8.8328    3.0635    0.0000 C   0  0  0  0  0  0  0  0  0  0  0  0
   -7.6373    2.1575    0.0000 N   0  0  0  0  0  0  0  0  0  0  0  0
   -6.2550    2.7398    0.0000 C   0  0  0  0  0  0  0  0  0  0  0  0
   -5.0595    1.8338    0.0000 C   0  0  0  0  0  0  0  0  0  0  0  0
   -5.2464    0.3455    0.0000 N   0  0  0  0  0  0  0  0  0  0  0  0
   -4.0509   -0.5605    0.0000 C   0  0  0  0  0  0  0  0  0  0  0  0
   -4.2378   -2.0488    0.0000 C   0  0  0  0  0  0  0  0  0  0  0  0
   -3.0423   -2.9548    0.0000 C   0  0  0  0  0  0  0  0  0  0  0  0
   -1.6599   -2.3724    0.0000 C   0  0  0  0  0  0  0  0  0  0  0  0
   -1.4731   -0.8841    0.0000 C   0  0  0  0  0  0  0  0  0  0  0  0
   -2.6685    0.0219    0.0000 C   0  0  0  0  0  0  0  0  0  0  0  0
    0.0002   -0.6019    0.0000 C   0  0  0  0  0  0  0  0  0  0  0  0
    0.7238   -1.9158    0.0000 C   0  0  0  0  0  0  0  0  0  0  0  0
   -0.3022   -3.0101    0.0000 C   0  0  0  0  0  0  0  0  0  0  0  0
    1.1648   -3.3666    0.0000 C   0  0  0  0  0  0  0  0  0  0  0  0
    2.0708   -2.1711    0.0000 C   0  0  0  0  0  0  0  0  0  0  0  0
    1.4885   -0.7888    0.0000 N   0  0  0  0  0  0  0  0  0  0  0  0
    2.3945    0.4067    0.0000 C   0  0  0  0  0  0  0  0  0  0  0  0
    1.8121    1.7890    0.0000 O   0  0  0  0  0  0  0  0  0  0  0  0
    3.8828    0.2198    0.0000 O   0  0  0  0  0  0  0  0  0  0  0  0
    4.7888    1.4153    0.0000 C   0  0  0  0  0  0  0  0  0  0  0  0
    6.2771    1.2285    0.0000 C   0  0  0  0  0  0  0  0  0  0  0  0
    6.8594   -0.1539    0.0000 C   0  0  0  0  0  0  0  0  0  0  0  0
    8.3477   -0.3408    0.0000 C   0  0  0  0  0  0  0  0  0  0  0  0
    9.2537    0.8547    0.0000 C   0  0  0  0  0  0  0  0  0  0  0  0
    8.6714    2.2371    0.0000 C   0  0  0  0  0  0  0  0  0  0  0  0
    7.1831    2.4239    0.0000 C   0  0  0  0  0  0  0  0  0  0  0  0
   -6.6287   -0.2368    0.0000 C   0  0  0  0  0  0  0  0  0  0  0  0
   -7.8242    0.6692    0.0000 C   0  0  0  0  0  0  0  0  0  0  0  0
  1  2  1  0
  2  3  1  0
  3  4  1  0
  4  5  1  0
  5  6  1  0
  6  7  2  0
  7  8  1  0
  8  9  2  0
  9 10  1  0
 10 11  2  0
 10 12  1  0
 12 13  1  0
 13 14  1  0
 14 15  1  6
 15 16  1  0
 16 17  1  0
 17 18  1  0
 18 19  2  0
 18 20  1  0
 20 21  1  0
 21 22  1  0
 22 23  2  0
 23 24  1  0
 24 25  2  0
 25 26  1  0
 26 27  2  0
  5 28  1  0
 28 29  1  0
 29  2  1  0
 11  6  1  0
 12 17  1  6
 27 22  1  0
 14  9  1  0
M  END
>  <Ki>  (509) 
71.0

>  <database>  (509) 
SRSLDB

$$$$

     RDKit          2D

 30 34  0  0  0  0  0  0  0  0999 V2000
   -7.8899    3.5485    0.0000 C   0  0  0  0  0  0  0  0  0  0  0  0
   -6.8173    2.5000    0.0000 N   0  0  0  0  0  0  0  0  0  0  0  0
   -5.3729    2.9048    0.0000 C   0  0  0  0  0  0  0  0  0  0  0  0
   -4.3002    1.8563    0.0000 C   0  0  0  0  0  0  0  0  0  0  0  0
   -4.6719    0.4031    0.0000 N   0  0  0  0  0  0  0  0  0  0  0  0
   -3.5992   -0.6454    0.0000 C   0  0  0  0  0  0  0  0  0  0  0  0
   -3.9709   -2.0987    0.0000 C   0  0  0  0  0  0  0  0  0  0  0  0
   -2.8982   -3.1472    0.0000 C   0  0  0  0  0  0  0  0  0  0  0  0
   -1.4538   -2.7424    0.0000 C   0  0  0  0  0  0  0  0  0  0  0  0
   -1.0821   -1.2892    0.0000 C   0  0  0  0  0  0  0  0  0  0  0  0
   -2.1548   -0.2407    0.0000 C   0  0  0  0  0  0  0  0  0  0  0  0
    0.4148   -1.1936    0.0000 C   0  0  0  0  0  0  0  0  0  0  0  0
    0.9683   -2.5878    0.0000 C   0  0  0  0  0  0  0  0  0  0  0  0
   -0.1866   -3.5450    0.0000 C   0  0  0  0  0  0  0  0  0  0  0  0
    1.2243   -4.0824    0.0000 C   0  0  0  0  0  0  0  0  0  0  0  0
    2.2728   -3.0097    0.0000 C   0  0  0  0  0  0  0  0  0  0  0  0
    1.8680   -1.5653    0.0000 N   0  0  0  0  0  0  0  0  0  0  0  0
    2.9165   -0.4926    0.0000 S   0  0  0  0  0  0  0  0  0  0  0  0
    1.8438    0.5559    0.0000 O   0  0  0  0  0  0  0  0  0  0  0  0
    3.9892   -1.5411    0.0000 O   0  0  0  0  0  0  0  0  0  0  0  0
    3.9650    0.5801    0.0000 C   0  0  0  0  0  0  0  0  0  0  0  0
    5.4182    0.2084    0.0000 C   0  0  0  0  0  0  0  0  0  0  0  0
    6.4667    1.2811    0.0000 C   0  0  0  0  0  0  0  0  0  0  0  0
    7.9200    0.9094    0.0000 Cl  0  0  0  0  0  0  0  0  0  0  0  0
    6.0620    2.7254    0.0000 C   0  0  0  0  0  0  0  0  0  0  0  0
    4.6088    3.0971    0.0000 C   0  0  0  0  0  0  0  0  0  0  0  0
    4.2041    4.5415    0.0000 Cl  0  0  0  0  0  0  0  0  0  0  0  0
    3.5603    2.0244    0.0000 C   0  0  0  0  0  0  0  0  0  0  0  0
   -6.1162   -0.0017    0.0000 C   0  0  0  0  0  0  0  0  0  0  0  0
   -7.1889    1.0468    0.0000 C   0  0  0  0  0  0  0  0  0  0  0  0
  1  2  1  0
  2  3  1  0
  3  4  1  0
  4  5  1  0
  5  6  1  0
  6  7  2  0
  7  8  1  0
  8  9  2  0
  9 10  1  0
 10 11  2  0
 10 12  1  0
 12 13  1  0
 13 14  1  0
 14 15  1  6
 15 16  1  0
 16 17  1  0
 17 18  1  0
 18 19  2  0
 18 20  2  0
 18 21  1  0
 21 22  2  0
 22 23  1  0
 23 24  1  0
 23 25  2  0
 25 26  1  0
 26 27  1  0
 26 28  2  0
  5 29  1  0
 29 30  1  0
 30  2  1  0
 11  6  1  0
 12 17  1  6
 28 21  1  0
 14  9  1  0
M  END
>  <Ki>  (510) 
27.0

>  <database>  (510) 
SRSLDB

$$$$

     RDKit          2D

 28 32  0  0  0  0  0  0  0  0999 V2000
   -7.7199    3.1655    0.0000 C   0  0  0  0  0  0  0  0  0  0  0  0
   -6.5706    2.2016    0.0000 N   0  0  0  0  0  0  0  0  0  0  0  0
   -5.1612    2.7149    0.0000 C   0  0  0  0  0  0  0  0  0  0  0  0
   -4.0119    1.7510    0.0000 C   0  0  0  0  0  0  0  0  0  0  0  0
   -4.2721    0.2738    0.0000 N   0  0  0  0  0  0  0  0  0  0  0  0
   -3.1228   -0.6902    0.0000 C   0  0  0  0  0  0  0  0  0  0  0  0
   -3.3829   -2.1674    0.0000 C   0  0  0  0  0  0  0  0  0  0  0  0
   -2.2336   -3.1313    0.0000 C   0  0  0  0  0  0  0  0  0  0  0  0
   -0.8242   -2.6180    0.0000 C   0  0  0  0  0  0  0  0  0  0  0  0
   -0.5640   -1.1407    0.0000 C   0  0  0  0  0  0  0  0  0  0  0  0
   -1.7133   -0.1768    0.0000 C   0  0  0  0  0  0  0  0  0  0  0  0
    0.9213   -0.9316    0.0000 C   0  0  0  0  0  0  0  0  0  0  0  0
    1.5792   -2.2796    0.0000 C   0  0  0  0  0  0  0  0  0  0  0  0
    0.5004   -3.3219    0.0000 C   0  0  0  0  0  0  0  0  0  0  0  0
    1.9480   -3.7505    0.0000 C   0  0  0  0  0  0  0  0  0  0  0  0
    2.9119   -2.6012    0.0000 C   0  0  0  0  0  0  0  0  0  0  0  0
    2.3986   -1.1917    0.0000 N   0  0  0  0  0  0  0  0  0  0  0  0
    3.3625   -0.0424    0.0000 S   0  0  0  0  0  0  0  0  0  0  0  0
    2.2132    0.9215    0.0000 O   0  0  0  0  0  0  0  0  0  0  0  0
    4.5118   -1.0064    0.0000 O   0  0  0  0  0  0  0  0  0  0  0  0
    4.3264    1.1068    0.0000 C   0  0  0  0  0  0  0  0  0  0  0  0
    5.8037    0.8467    0.0000 C   0  0  0  0  0  0  0  0  0  0  0  0
    6.7676    1.9960    0.0000 C   0  0  0  0  0  0  0  0  0  0  0  0
    6.2542    3.4054    0.0000 C   0  0  0  0  0  0  0  0  0  0  0  0
    4.7770    3.6656    0.0000 C   0  0  0  0  0  0  0  0  0  0  0  0
    3.8130    2.5163    0.0000 C   0  0  0  0  0  0  0  0  0  0  0  0
   -5.6815   -0.2396    0.0000 C   0  0  0  0  0  0  0  0  0  0  0  0
   -6.8308    0.7243    0.0000 C   0  0  0  0  0  0  0  0  0  0  0  0
  1  2  1  0
  2  3  1  0
  3  4  1  0
  4  5  1  0
  5  6  1  0
  6  7  2  0
  7  8  1  0
  8  9  2  0
  9 10  1  0
 10 11  2  0
 10 12  1  0
 12 13  1  0
 13 14  1  0
 14 15  1  6
 15 16  1  0
 16 17  1  0
 17 18  1  0
 18 19  2  0
 18 20  2  0
 18 21  1  0
 21 22  2  0
 22 23  1  0
 23 24  2  0
 24 25  1  0
 25 26  2  0
  5 27  1  0
 27 28  1  0
 28  2  1  0
 11  6  1  0
 12 17  1  6
 26 21  1  0
 14  9  1  0
M  END
>  <Ki>  (511) 
764.0

>  <database>  (511) 
SRSLDB

$$$$

     RDKit          2D

 29 33  0  0  0  0  0  0  0  0999 V2000
   -8.8328    3.0635    0.0000 C   0  0  0  0  0  0  0  0  0  0  0  0
   -7.6373    2.1575    0.0000 N   0  0  0  0  0  0  0  0  0  0  0  0
   -6.2550    2.7398    0.0000 C   0  0  0  0  0  0  0  0  0  0  0  0
   -5.0595    1.8338    0.0000 C   0  0  0  0  0  0  0  0  0  0  0  0
   -5.2464    0.3455    0.0000 N   0  0  0  0  0  0  0  0  0  0  0  0
   -4.0509   -0.5605    0.0000 C   0  0  0  0  0  0  0  0  0  0  0  0
   -4.2378   -2.0488    0.0000 C   0  0  0  0  0  0  0  0  0  0  0  0
   -3.0423   -2.9548    0.0000 C   0  0  0  0  0  0  0  0  0  0  0  0
   -1.6599   -2.3724    0.0000 C   0  0  0  0  0  0  0  0  0  0  0  0
   -1.4731   -0.8841    0.0000 C   0  0  0  0  0  0  0  0  0  0  0  0
   -2.6685    0.0219    0.0000 C   0  0  0  0  0  0  0  0  0  0  0  0
    0.0002   -0.6019    0.0000 C   0  0  0  0  0  0  0  0  0  0  0  0
    0.7238   -1.9158    0.0000 C   0  0  0  0  0  0  0  0  0  0  0  0
   -0.3022   -3.0101    0.0000 C   0  0  0  0  0  0  0  0  0  0  0  0
    1.1648   -3.3666    0.0000 C   0  0  0  0  0  0  0  0  0  0  0  0
    2.0708   -2.1711    0.0000 C   0  0  0  0  0  0  0  0  0  0  0  0
    1.4885   -0.7888    0.0000 N   0  0  0  0  0  0  0  0  0  0  0  0
    2.3945    0.4067    0.0000 C   0  0  0  0  0  0  0  0  0  0  0  0
    1.8121    1.7890    0.0000 O   0  0  0  0  0  0  0  0  0  0  0  0
    3.8828    0.2198    0.0000 C   0  0  0  0  0  0  0  0  0  0  0  0
    4.7888    1.4153    0.0000 C   0  0  0  0  0  0  0  0  0  0  0  0
    6.2771    1.2285    0.0000 C   0  0  0  0  0  0  0  0  0  0  0  0
    6.8594   -0.1539    0.0000 C   0  0  0  0  0  0  0  0  0  0  0  0
    8.3477   -0.3408    0.0000 C   0  0  0  0  0  0  0  0  0  0  0  0
    9.2537    0.8547    0.0000 C   0  0  0  0  0  0  0  0  0  0  0  0
    8.6714    2.2371    0.0000 C   0  0  0  0  0  0  0  0  0  0  0  0
    7.1831    2.4239    0.0000 C   0  0  0  0  0  0  0  0  0  0  0  0
   -6.6287   -0.2368    0.0000 C   0  0  0  0  0  0  0  0  0  0  0  0
   -7.8242    0.6692    0.0000 C   0  0  0  0  0  0  0  0  0  0  0  0
  1  2  1  0
  2  3  1  0
  3  4  1  0
  4  5  1  0
  5  6  1  0
  6  7  2  0
  7  8  1  0
  8  9  2  0
  9 10  1  0
 10 11  2  0
 10 12  1  0
 12 13  1  0
 13 14  1  0
 14 15  1  6
 15 16  1  0
 16 17  1  0
 17 18  1  0
 18 19  2  0
 18 20  1  0
 20 21  1  0
 21 22  1  0
 22 23  2  0
 23 24  1  0
 24 25  2  0
 25 26  1  0
 26 27  2  0
  5 28  1  0
 28 29  1  0
 29  2  1  0
 11  6  1  0
 12 17  1  6
 27 22  1  0
 14  9  1  0
M  END
>  <Ki>  (512) 
357.0

>  <database>  (512) 
SRSLDB

$$$$

     RDKit          2D

 25 28  0  0  0  0  0  0  0  0999 V2000
   -8.4083   -3.0365    0.0000 C   0  0  0  0  0  0  0  0  0  0  0  0
   -7.5752   -1.7892    0.0000 C   0  0  0  0  0  0  0  0  0  0  0  0
   -6.0784   -1.8870    0.0000 C   0  0  0  0  0  0  0  0  0  0  0  0
   -5.2453   -0.6396    0.0000 O   0  0  0  0  0  0  0  0  0  0  0  0
   -3.7485   -0.7374    0.0000 C   0  0  0  0  0  0  0  0  0  0  0  0
   -3.0848   -2.0826    0.0000 O   0  0  0  0  0  0  0  0  0  0  0  0
   -2.9154    0.5100    0.0000 N   0  0  0  0  0  0  0  0  0  0  0  0
   -3.5791    1.8551    0.0000 C   0  0  0  0  0  0  0  0  0  0  0  0
   -2.7460    3.1025    0.0000 C   0  0  0  0  0  0  0  0  0  0  0  0
   -1.2492    3.0047    0.0000 C   0  0  0  0  0  0  0  0  0  0  0  0
   -0.5855    1.6595    0.0000 C   0  0  0  0  0  0  0  0  0  0  0  0
   -1.4186    0.4122    0.0000 C   0  0  0  0  0  0  0  0  0  0  0  0
    0.0352    0.7817    0.0000 C   0  0  0  0  0  0  0  0  0  0  0  0
    1.2826   -0.0514    0.0000 C   0  0  0  0  0  0  0  0  0  0  0  0
    2.6277    0.6123    0.0000 C   0  0  0  0  0  0  0  0  0  0  0  0
    3.8751   -0.2209    0.0000 N   0  0  0  0  0  0  0  0  0  0  0  0
    3.7773   -1.7177    0.0000 C   0  0  0  0  0  0  0  0  0  0  0  0
    5.0247   -2.5508    0.0000 C   0  0  0  0  0  0  0  0  0  0  0  0
    6.3698   -1.8871    0.0000 N   0  0  0  0  0  0  0  0  0  0  0  0
    7.6172   -2.7202    0.0000 C   0  0  0  0  0  0  0  0  0  0  0  0
    6.4677   -0.3903    0.0000 C   0  0  0  0  0  0  0  0  0  0  0  0
    5.2203    0.4428    0.0000 C   0  0  0  0  0  0  0  0  0  0  0  0
    2.7255    2.1091    0.0000 C   0  0  0  0  0  0  0  0  0  0  0  0
    1.4782    2.9422    0.0000 C   0  0  0  0  0  0  0  0  0  0  0  0
    0.1330    2.2785    0.0000 C   0  0  0  0  0  0  0  0  0  0  0  0
  1  2  2  0
  2  3  1  0
  3  4  1  0
  4  5  1  0
  5  6  2  0
  5  7  1  0
  7  8  1  0
  8  9  1  0
 10  9  1  6
 10 11  1  0
 11 12  1  0
 12 13  1  0
 13 14  2  0
 14 15  1  0
 15 16  1  0
 16 17  1  0
 17 18  1  0
 18 19  1  0
 19 20  1  0
 19 21  1  0
 21 22  1  0
 15 23  2  0
 23 24  1  0
 24 25  2  0
 12  7  1  6
 25 13  1  0
 25 10  1  0
 22 16  1  0
M  END
>  <Ki>  (513) 
442.0

>  <database>  (513) 
SRSLDB

$$$$

     RDKit          2D

 31 35  0  0  0  0  0  0  0  0999 V2000
   -9.7243    4.1566    0.0000 C   0  0  0  0  0  0  0  0  0  0  0  0
   -8.4419    3.3784    0.0000 C   0  0  0  0  0  0  0  0  0  0  0  0
   -8.4747    1.8788    0.0000 C   0  0  0  0  0  0  0  0  0  0  0  0
   -7.1924    1.1006    0.0000 N   0  0  0  0  0  0  0  0  0  0  0  0
   -5.8772    1.8220    0.0000 C   0  0  0  0  0  0  0  0  0  0  0  0
   -4.5949    1.0438    0.0000 C   0  0  0  0  0  0  0  0  0  0  0  0
   -4.6277   -0.4558    0.0000 N   0  0  0  0  0  0  0  0  0  0  0  0
   -3.3453   -1.2340    0.0000 C   0  0  0  0  0  0  0  0  0  0  0  0
   -3.3781   -2.7337    0.0000 C   0  0  0  0  0  0  0  0  0  0  0  0
   -2.0957   -3.5119    0.0000 C   0  0  0  0  0  0  0  0  0  0  0  0
   -0.7806   -2.7904    0.0000 C   0  0  0  0  0  0  0  0  0  0  0  0
   -0.7479   -1.2908    0.0000 C   0  0  0  0  0  0  0  0  0  0  0  0
   -2.0302   -0.5126    0.0000 C   0  0  0  0  0  0  0  0  0  0  0  0
    0.6885   -0.8585    0.0000 C   0  0  0  0  0  0  0  0  0  0  0  0
    1.5435   -2.0910    0.0000 C   0  0  0  0  0  0  0  0  0  0  0  0
    0.6355   -3.2850    0.0000 C   0  0  0  0  0  0  0  0  0  0  0  0
    2.1314   -3.4888    0.0000 C   0  0  0  0  0  0  0  0  0  0  0  0
    2.9096   -2.2064    0.0000 C   0  0  0  0  0  0  0  0  0  0  0  0
    2.1881   -0.8913    0.0000 N   0  0  0  0  0  0  0  0  0  0  0  0
    2.9663    0.3910    0.0000 C   0  0  0  0  0  0  0  0  0  0  0  0
    2.2449    1.7061    0.0000 O   0  0  0  0  0  0  0  0  0  0  0  0
    4.4660    0.3583    0.0000 O   0  0  0  0  0  0  0  0  0  0  0  0
    5.2442    1.6406    0.0000 C   0  0  0  0  0  0  0  0  0  0  0  0
    6.7438    1.6078    0.0000 C   0  0  0  0  0  0  0  0  0  0  0  0
    7.4653    0.2927    0.0000 C   0  0  0  0  0  0  0  0  0  0  0  0
    8.9649    0.2600    0.0000 C   0  0  0  0  0  0  0  0  0  0  0  0
    9.7431    1.5423    0.0000 C   0  0  0  0  0  0  0  0  0  0  0  0
    9.0217    2.8574    0.0000 C   0  0  0  0  0  0  0  0  0  0  0  0
    7.5220    2.8902    0.0000 C   0  0  0  0  0  0  0  0  0  0  0  0
   -5.9428   -1.1773    0.0000 C   0  0  0  0  0  0  0  0  0  0  0  0
   -7.2251   -0.3991    0.0000 C   0  0  0  0  0  0  0  0  0  0  0  0
  1  2  2  0
  2  3  1  0
  3  4  1  0
  4  5  1  0
  5  6  1  0
  6  7  1  0
  7  8  1  0
  8  9  2  0
  9 10  1  0
 10 11  2  0
 11 12  1  0
 12 13  2  0
 12 14  1  0
 14 15  1  0
 15 16  1  0
 16 17  1  6
 17 18  1  0
 18 19  1  0
 19 20  1  0
 20 21  2  0
 20 22  1  0
 22 23  1  0
 23 24  1  0
 24 25  2  0
 25 26  1  0
 26 27  2  0
 27 28  1  0
 28 29  2  0
  7 30  1  0
 30 31  1  0
 31  4  1  0
 13  8  1  0
 14 19  1  6
 29 24  1  0
 16 11  1  0
M  END
>  <Ki>  (514) 
34.0

>  <database>  (514) 
SRSLDB

$$$$

     RDKit          2D

 32 36  0  0  0  0  0  0  0  0999 V2000
   -9.6906    4.9259    0.0000 C   0  0  0  0  0  0  0  0  0  0  0  0
   -9.6363    3.4268    0.0000 C   0  0  0  0  0  0  0  0  0  0  0  0
   -8.3110    2.7243    0.0000 C   0  0  0  0  0  0  0  0  0  0  0  0
   -8.2568    1.2253    0.0000 C   0  0  0  0  0  0  0  0  0  0  0  0
   -6.9315    0.5228    0.0000 N   0  0  0  0  0  0  0  0  0  0  0  0
   -5.6604    1.3192    0.0000 C   0  0  0  0  0  0  0  0  0  0  0  0
   -4.3351    0.6167    0.0000 C   0  0  0  0  0  0  0  0  0  0  0  0
   -4.2808   -0.8823    0.0000 N   0  0  0  0  0  0  0  0  0  0  0  0
   -2.9555   -1.5848    0.0000 C   0  0  0  0  0  0  0  0  0  0  0  0
   -2.9013   -3.0839    0.0000 C   0  0  0  0  0  0  0  0  0  0  0  0
   -1.5760   -3.7864    0.0000 C   0  0  0  0  0  0  0  0  0  0  0  0
   -0.3049   -2.9899    0.0000 C   0  0  0  0  0  0  0  0  0  0  0  0
   -0.3592   -1.4909    0.0000 C   0  0  0  0  0  0  0  0  0  0  0  0
   -1.6845   -0.7884    0.0000 C   0  0  0  0  0  0  0  0  0  0  0  0
    1.0497   -0.9761    0.0000 C   0  0  0  0  0  0  0  0  0  0  0  0
    1.9747   -2.1569    0.0000 C   0  0  0  0  0  0  0  0  0  0  0  0
    1.1375   -3.4015    0.0000 C   0  0  0  0  0  0  0  0  0  0  0  0
    2.6427   -3.5182    0.0000 C   0  0  0  0  0  0  0  0  0  0  0  0
    3.3452   -2.1929    0.0000 C   0  0  0  0  0  0  0  0  0  0  0  0
    2.5487   -0.9218    0.0000 N   0  0  0  0  0  0  0  0  0  0  0  0
    3.2513    0.4035    0.0000 C   0  0  0  0  0  0  0  0  0  0  0  0
    2.4548    1.6746    0.0000 O   0  0  0  0  0  0  0  0  0  0  0  0
    4.7503    0.4577    0.0000 O   0  0  0  0  0  0  0  0  0  0  0  0
    5.4528    1.7830    0.0000 C   0  0  0  0  0  0  0  0  0  0  0  0
    6.9518    1.8373    0.0000 C   0  0  0  0  0  0  0  0  0  0  0  0
    7.7483    0.5662    0.0000 C   0  0  0  0  0  0  0  0  0  0  0  0
    9.2474    0.6205    0.0000 C   0  0  0  0  0  0  0  0  0  0  0  0
    9.9499    1.9458    0.0000 C   0  0  0  0  0  0  0  0  0  0  0  0
    9.1534    3.2168    0.0000 C   0  0  0  0  0  0  0  0  0  0  0  0
    7.6544    3.1626    0.0000 C   0  0  0  0  0  0  0  0  0  0  0  0
   -5.5519   -1.6788    0.0000 C   0  0  0  0  0  0  0  0  0  0  0  0
   -6.8772   -0.9763    0.0000 C   0  0  0  0  0  0  0  0  0  0  0  0
  1  2  2  0
  2  3  1  0
  3  4  1  0
  4  5  1  0
  5  6  1  0
  6  7  1  0
  7  8  1  0
  8  9  1  0
  9 10  2  0
 10 11  1  0
 11 12  2  0
 12 13  1  0
 13 14  2  0
 13 15  1  0
 15 16  1  0
 16 17  1  0
 17 18  1  6
 18 19  1  0
 19 20  1  0
 20 21  1  0
 21 22  2  0
 21 23  1  0
 23 24  1  0
 24 25  1  0
 25 26  2  0
 26 27  1  0
 27 28  2  0
 28 29  1  0
 29 30  2  0
  8 31  1  0
 31 32  1  0
 32  5  1  0
 14  9  1  0
 15 20  1  6
 30 25  1  0
 17 12  1  0
M  END
>  <Ki>  (515) 
16.0

>  <database>  (515) 
SRSLDB

$$$$

     RDKit          2D

 33 37  0  0  0  0  0  0  0  0999 V2000
   -9.4879    4.5908    0.0000 C   0  0  0  0  0  0  0  0  0  0  0  0
   -9.3931    3.0938    0.0000 C   0  0  0  0  0  0  0  0  0  0  0  0
  -10.6421    2.2632    0.0000 C   0  0  0  0  0  0  0  0  0  0  0  0
   -8.0492    2.4275    0.0000 C   0  0  0  0  0  0  0  0  0  0  0  0
   -7.9544    0.9305    0.0000 C   0  0  0  0  0  0  0  0  0  0  0  0
   -6.6105    0.2641    0.0000 N   0  0  0  0  0  0  0  0  0  0  0  0
   -5.3615    1.0947    0.0000 C   0  0  0  0  0  0  0  0  0  0  0  0
   -4.0176    0.4283    0.0000 C   0  0  0  0  0  0  0  0  0  0  0  0
   -3.9228   -1.0687    0.0000 N   0  0  0  0  0  0  0  0  0  0  0  0
   -2.5790   -1.7350    0.0000 C   0  0  0  0  0  0  0  0  0  0  0  0
   -2.4841   -3.2320    0.0000 C   0  0  0  0  0  0  0  0  0  0  0  0
   -1.1403   -3.8984    0.0000 C   0  0  0  0  0  0  0  0  0  0  0  0
    0.1087   -3.0678    0.0000 C   0  0  0  0  0  0  0  0  0  0  0  0
    0.0139   -1.5708    0.0000 C   0  0  0  0  0  0  0  0  0  0  0  0
   -1.3299   -0.9044    0.0000 C   0  0  0  0  0  0  0  0  0  0  0  0
    1.4083   -1.0180    0.0000 C   0  0  0  0  0  0  0  0  0  0  0  0
    2.3650   -2.1734    0.0000 C   0  0  0  0  0  0  0  0  0  0  0  0
    1.5618   -3.4402    0.0000 C   0  0  0  0  0  0  0  0  0  0  0  0
    3.0696   -3.5161    0.0000 C   0  0  0  0  0  0  0  0  0  0  0  0
    3.7360   -2.1722    0.0000 C   0  0  0  0  0  0  0  0  0  0  0  0
    2.9053   -0.9232    0.0000 N   0  0  0  0  0  0  0  0  0  0  0  0
    3.5717    0.4207    0.0000 C   0  0  0  0  0  0  0  0  0  0  0  0
    2.7411    1.6697    0.0000 O   0  0  0  0  0  0  0  0  0  0  0  0
    5.0687    0.5155    0.0000 O   0  0  0  0  0  0  0  0  0  0  0  0
    5.7351    1.8594    0.0000 C   0  0  0  0  0  0  0  0  0  0  0  0
    7.2321    1.9542    0.0000 C   0  0  0  0  0  0  0  0  0  0  0  0
    8.0627    0.7052    0.0000 C   0  0  0  0  0  0  0  0  0  0  0  0
    9.5597    0.8000    0.0000 C   0  0  0  0  0  0  0  0  0  0  0  0
   10.2261    2.1438    0.0000 C   0  0  0  0  0  0  0  0  0  0  0  0
    9.3955    3.3929    0.0000 C   0  0  0  0  0  0  0  0  0  0  0  0
    7.8985    3.2980    0.0000 C   0  0  0  0  0  0  0  0  0  0  0  0
   -5.1718   -1.8993    0.0000 C   0  0  0  0  0  0  0  0  0  0  0  0
   -6.5157   -1.2329    0.0000 C   0  0  0  0  0  0  0  0  0  0  0  0
  1  2  1  0
  2  3  1  0
  2  4  2  0
  4  5  1  0
  5  6  1  0
  6  7  1  0
  7  8  1  0
  8  9  1  0
  9 10  1  0
 10 11  2  0
 11 12  1  0
 12 13  2  0
 13 14  1  0
 14 15  2  0
 14 16  1  0
 16 17  1  0
 17 18  1  0
 18 19  1  6
 19 20  1  0
 20 21  1  0
 21 22  1  0
 22 23  2  0
 22 24  1  0
 24 25  1  0
 25 26  1  0
 26 27  2  0
 27 28  1  0
 28 29  2  0
 29 30  1  0
 30 31  2  0
  9 32  1  0
 32 33  1  0
 33  6  1  0
 15 10  1  0
 16 21  1  6
 31 26  1  0
 18 13  1  0
M  END
>  <Ki>  (516) 
23.0

>  <database>  (516) 
SRSLDB

$$$$

     RDKit          2D

 35 39  0  0  0  0  0  0  0  0999 V2000
  -10.9087    5.3191    0.0000 C   0  0  0  0  0  0  0  0  0  0  0  0
  -10.6607    3.8397    0.0000 C   0  0  0  0  0  0  0  0  0  0  0  0
   -9.2555    3.3148    0.0000 O   0  0  0  0  0  0  0  0  0  0  0  0
   -9.0075    1.8355    0.0000 C   0  0  0  0  0  0  0  0  0  0  0  0
  -10.1646    0.8810    0.0000 O   0  0  0  0  0  0  0  0  0  0  0  0
   -7.6023    1.3106    0.0000 C   0  0  0  0  0  0  0  0  0  0  0  0
   -7.3543   -0.1687    0.0000 C   0  0  0  0  0  0  0  0  0  0  0  0
   -5.9491   -0.6936    0.0000 N   0  0  0  0  0  0  0  0  0  0  0  0
   -4.7919    0.2609    0.0000 C   0  0  0  0  0  0  0  0  0  0  0  0
   -3.3868   -0.2640    0.0000 C   0  0  0  0  0  0  0  0  0  0  0  0
   -3.1387   -1.7433    0.0000 N   0  0  0  0  0  0  0  0  0  0  0  0
   -1.7336   -2.2682    0.0000 C   0  0  0  0  0  0  0  0  0  0  0  0
   -1.4855   -3.7476    0.0000 C   0  0  0  0  0  0  0  0  0  0  0  0
   -0.0804   -4.2724    0.0000 C   0  0  0  0  0  0  0  0  0  0  0  0
    1.0768   -3.3179    0.0000 C   0  0  0  0  0  0  0  0  0  0  0  0
    0.8287   -1.8386    0.0000 C   0  0  0  0  0  0  0  0  0  0  0  0
   -0.5764   -1.3137    0.0000 C   0  0  0  0  0  0  0  0  0  0  0  0
    2.1590   -1.1456    0.0000 C   0  0  0  0  0  0  0  0  0  0  0  0
    3.2293   -2.1966    0.0000 C   0  0  0  0  0  0  0  0  0  0  0  0
    2.5604   -3.5392    0.0000 C   0  0  0  0  0  0  0  0  0  0  0  0
    4.0680   -3.4598    0.0000 C   0  0  0  0  0  0  0  0  0  0  0  0
    4.5929   -2.0547    0.0000 C   0  0  0  0  0  0  0  0  0  0  0  0
    3.6384   -0.8975    0.0000 N   0  0  0  0  0  0  0  0  0  0  0  0
    4.1633    0.5077    0.0000 C   0  0  0  0  0  0  0  0  0  0  0  0
    3.2088    1.6648    0.0000 O   0  0  0  0  0  0  0  0  0  0  0  0
    5.6426    0.7557    0.0000 O   0  0  0  0  0  0  0  0  0  0  0  0
    6.1675    2.1609    0.0000 C   0  0  0  0  0  0  0  0  0  0  0  0
    7.6468    2.4089    0.0000 C   0  0  0  0  0  0  0  0  0  0  0  0
    8.6013    1.2518    0.0000 C   0  0  0  0  0  0  0  0  0  0  0  0
   10.0807    1.4998    0.0000 C   0  0  0  0  0  0  0  0  0  0  0  0
   10.6055    2.9050    0.0000 C   0  0  0  0  0  0  0  0  0  0  0  0
    9.6511    4.0621    0.0000 C   0  0  0  0  0  0  0  0  0  0  0  0
    8.1717    3.8141    0.0000 C   0  0  0  0  0  0  0  0  0  0  0  0
   -4.2959   -2.6978    0.0000 C   0  0  0  0  0  0  0  0  0  0  0  0
   -5.7010   -2.1729    0.0000 C   0  0  0  0  0  0  0  0  0  0  0  0
  1  2  1  0
  2  3  1  0
  3  4  1  0
  4  5  2  0
  4  6  1  0
  6  7  1  0
  7  8  1  0
  8  9  1  0
  9 10  1  0
 10 11  1  0
 11 12  1  0
 12 13  2  0
 13 14  1  0
 14 15  2  0
 15 16  1  0
 16 17  2  0
 16 18  1  0
 18 19  1  0
 19 20  1  0
 20 21  1  6
 21 22  1  0
 22 23  1  0
 23 24  1  0
 24 25  2  0
 24 26  1  0
 26 27  1  0
 27 28  1  0
 28 29  2  0
 29 30  1  0
 30 31  2  0
 31 32  1  0
 32 33  2  0
 11 34  1  0
 34 35  1  0
 35  8  1  0
 17 12  1  0
 18 23  1  6
 33 28  1  0
 20 15  1  0
M  END
>  <Ki>  (517) 
16.2

>  <database>  (517) 
SRSLDB

$$$$

     RDKit          2D

 26 29  0  0  0  0  0  0  0  0999 V2000
    2.0979   -2.9948    0.0000 C   0  0  0  0  0  0  0  0  0  0  0  0
    0.7867   -2.2662    0.0000 N   0  0  0  0  0  0  0  0  0  0  0  0
   -0.4998   -3.0375    0.0000 C   0  0  0  0  0  0  0  0  0  0  0  0
   -1.8110   -2.3089    0.0000 C   0  0  0  0  0  0  0  0  0  0  0  0
   -1.8356   -0.8091    0.0000 C   0  0  0  0  0  0  0  0  0  0  0  0
   -3.1468   -0.0805    0.0000 C   0  0  0  0  0  0  0  0  0  0  0  0
   -3.1714    1.4193    0.0000 C   0  0  0  0  0  0  0  0  0  0  0  0
   -4.4826    2.1479    0.0000 C   0  0  0  0  0  0  0  0  0  0  0  0
   -5.7691    1.3767    0.0000 C   0  0  0  0  0  0  0  0  0  0  0  0
   -5.7445   -0.1231    0.0000 C   0  0  0  0  0  0  0  0  0  0  0  0
   -7.0311   -0.8944    0.0000 O   0  0  0  0  0  0  0  0  0  0  0  0
   -4.4333   -0.8517    0.0000 C   0  0  0  0  0  0  0  0  0  0  0  0
   -1.8602    0.6907    0.0000 C   0  0  0  0  0  0  0  0  0  0  0  0
   -0.5737    1.4619    0.0000 C   0  0  0  0  0  0  0  0  0  0  0  0
   -0.5983    2.9617    0.0000 O   0  0  0  0  0  0  0  0  0  0  0  0
    0.7375    0.7334    0.0000 C   0  0  0  0  0  0  0  0  0  0  0  0
    2.0241    1.5046    0.0000 C   0  0  0  0  0  0  0  0  0  0  0  0
    3.3352    0.7760    0.0000 C   0  0  0  0  0  0  0  0  0  0  0  0
    3.3599   -0.7238    0.0000 C   0  0  0  0  0  0  0  0  0  0  0  0
    4.6710   -1.4524    0.0000 C   0  0  0  0  0  0  0  0  0  0  0  0
    5.9576   -0.6812    0.0000 C   0  0  0  0  0  0  0  0  0  0  0  0
    5.9330    0.8186    0.0000 C   0  0  0  0  0  0  0  0  0  0  0  0
    7.2195    1.5899    0.0000 I   0  0  0  0  0  0  0  0  0  0  0  0
    4.6218    1.5472    0.0000 C   0  0  0  0  0  0  0  0  0  0  0  0
    0.7621   -0.7664    0.0000 C   0  0  0  0  0  0  0  0  0  0  0  0
   -0.5490   -0.0379    0.0000 C   0  0  0  0  0  0  0  0  0  0  0  0
  1  2  1  0
  2  3  1  0
  3  4  1  0
  4  5  1  0
  5  6  1  0
  6  7  2  0
  7  8  1  0
  8  9  2  0
  9 10  1  0
 10 11  1  0
 10 12  2  0
  5 13  1  0
 13 14  1  0
 14 15  2  0
 14 16  1  0
 16 17  2  0
 17 18  1  0
 18 19  2  0
 19 20  1  0
 20 21  2  0
 21 22  1  0
 22 23  1  0
 22 24  2  0
 16 25  1  0
 25 26  1  0
 25  2  1  0
 26  5  1  0
 12  6  1  0
 24 18  1  0
M  END
>  <ChemBL_ID>  (518) 
CHEMBL356639

>  <Compound_Key>  (518) 
(+)-9

>  <Ki>  (518) 
24.0

>  <database>  (518) 
CHEMBL

>  <Assay_ChEMBL_ID>  (518) 
CHEMBL809526

>  <Document_ChEMBL_ID>  (518) 
CHEMBL1128667

$$$$

     RDKit          2D

 27 30  0  0  0  0  0  0  0  0999 V2000
    1.9063   -2.8930    0.0000 C   0  0  0  0  0  0  0  0  0  0  0  0
    0.5762   -2.1995    0.0000 N   0  0  0  0  0  0  0  0  0  0  0  0
   -0.6894   -3.0046    0.0000 C   0  0  0  0  0  0  0  0  0  0  0  0
   -2.0195   -2.3111    0.0000 C   0  0  0  0  0  0  0  0  0  0  0  0
   -2.0840   -0.8125    0.0000 C   0  0  0  0  0  0  0  0  0  0  0  0
   -3.4140   -0.1191    0.0000 C   0  0  0  0  0  0  0  0  0  0  0  0
   -3.4785    1.3796    0.0000 C   0  0  0  0  0  0  0  0  0  0  0  0
   -4.8086    2.0730    0.0000 C   0  0  0  0  0  0  0  0  0  0  0  0
   -6.0742    1.2679    0.0000 C   0  0  0  0  0  0  0  0  0  0  0  0
   -6.0097   -0.2307    0.0000 C   0  0  0  0  0  0  0  0  0  0  0  0
   -7.2753   -1.0359    0.0000 O   0  0  0  0  0  0  0  0  0  0  0  0
   -4.6796   -0.9242    0.0000 C   0  0  0  0  0  0  0  0  0  0  0  0
   -2.1484    0.6861    0.0000 C   0  0  0  0  0  0  0  0  0  0  0  0
   -0.8828    1.4912    0.0000 C   0  0  0  0  0  0  0  0  0  0  0  0
   -0.9473    2.9898    0.0000 O   0  0  0  0  0  0  0  0  0  0  0  0
    0.4473    0.7977    0.0000 C   0  0  0  0  0  0  0  0  0  0  0  0
    1.7129    1.6029    0.0000 C   0  0  0  0  0  0  0  0  0  0  0  0
    3.0429    0.9094    0.0000 C   0  0  0  0  0  0  0  0  0  0  0  0
    3.1074   -0.5892    0.0000 C   0  0  0  0  0  0  0  0  0  0  0  0
    4.4375   -1.2827    0.0000 C   0  0  0  0  0  0  0  0  0  0  0  0
    5.7031   -0.4776    0.0000 C   0  0  0  0  0  0  0  0  0  0  0  0
    7.0331   -1.1710    0.0000 Cl  0  0  0  0  0  0  0  0  0  0  0  0
    5.6386    1.0211    0.0000 C   0  0  0  0  0  0  0  0  0  0  0  0
    6.9042    1.8262    0.0000 Cl  0  0  0  0  0  0  0  0  0  0  0  0
    4.3085    1.7145    0.0000 C   0  0  0  0  0  0  0  0  0  0  0  0
    0.5117   -0.7009    0.0000 C   0  0  0  0  0  0  0  0  0  0  0  0
   -0.8184   -0.0074    0.0000 C   0  0  0  0  0  0  0  0  0  0  0  0
  1  2  1  0
  2  3  1  0
  3  4  1  0
  4  5  1  0
  5  6  1  0
  6  7  2  0
  7  8  1  0
  8  9  2  0
  9 10  1  0
 10 11  1  0
 10 12  2  0
  5 13  1  0
 13 14  1  0
 14 15  2  0
 14 16  1  0
 16 17  2  0
 17 18  1  0
 18 19  2  0
 19 20  1  0
 20 21  2  0
 21 22  1  0
 21 23  1  0
 23 24  1  0
 23 25  2  0
 16 26  1  0
 26 27  1  0
 26  2  1  0
 27  5  1  0
 12  6  1  0
 25 18  1  0
M  END
>  <ChemBL_ID>  (519) 
CHEMBL322468

>  <Compound_Key>  (519) 
3

>  <Ki>  (519) 
71.8

>  <database>  (519) 
CHEMBL

>  <Assay_ChEMBL_ID>  (519) 
CHEMBL809526

>  <Document_ChEMBL_ID>  (519) 
CHEMBL1128667

$$$$

     RDKit          2D

 28 31  0  0  0  0  0  0  0  0999 V2000
    2.9469    3.1283    0.0000 C   0  0  0  0  0  0  0  0  0  0  0  0
    2.2662    1.7917    0.0000 O   0  0  0  0  0  0  0  0  0  0  0  0
    3.0834    0.5338    0.0000 C   0  0  0  0  0  0  0  0  0  0  0  0
    2.4026   -0.8028    0.0000 C   0  0  0  0  0  0  0  0  0  0  0  0
    0.9047   -0.8816    0.0000 C   0  0  0  0  0  0  0  0  0  0  0  0
    0.2239   -2.2182    0.0000 O   0  0  0  0  0  0  0  0  0  0  0  0
    0.0875    0.3763    0.0000 N   0  0  0  0  0  0  0  0  0  0  0  0
   -1.4104    0.2975    0.0000 C   0  0  0  0  0  0  0  0  0  0  0  0
   -2.2276    1.5554    0.0000 C   0  0  0  0  0  0  0  0  0  0  0  0
   -3.7255    1.4766    0.0000 C   0  0  0  0  0  0  0  0  0  0  0  0
   -4.4063    0.1400    0.0000 N   0  0  0  0  0  0  0  0  0  0  0  0
   -5.9042    0.0612    0.0000 C   0  0  0  0  0  0  0  0  0  0  0  0
   -6.7214    1.3190    0.0000 C   0  0  0  0  0  0  0  0  0  0  0  0
   -8.2193    1.2403    0.0000 C   0  0  0  0  0  0  0  0  0  0  0  0
   -8.9001   -0.0964    0.0000 C   0  0  0  0  0  0  0  0  0  0  0  0
   -8.0829   -1.3542    0.0000 C   0  0  0  0  0  0  0  0  0  0  0  0
   -6.5850   -1.2755    0.0000 C   0  0  0  0  0  0  0  0  0  0  0  0
   -3.5891   -1.1179    0.0000 C   0  0  0  0  0  0  0  0  0  0  0  0
   -2.0912   -1.0391    0.0000 C   0  0  0  0  0  0  0  0  0  0  0  0
    3.2198   -2.0607    0.0000 C   0  0  0  0  0  0  0  0  0  0  0  0
    4.7177   -1.9819    0.0000 C   0  0  0  0  0  0  0  0  0  0  0  0
    5.5349   -3.2398    0.0000 Br  0  0  0  0  0  0  0  0  0  0  0  0
    5.3985   -0.6453    0.0000 C   0  0  0  0  0  0  0  0  0  0  0  0
    6.8964   -0.5665    0.0000 C   0  0  0  0  0  0  0  0  0  0  0  0
    7.5772    0.7701    0.0000 C   0  0  0  0  0  0  0  0  0  0  0  0
    6.7600    2.0280    0.0000 C   0  0  0  0  0  0  0  0  0  0  0  0
    5.2620    1.9492    0.0000 C   0  0  0  0  0  0  0  0  0  0  0  0
    4.5813    0.6126    0.0000 C   0  0  0  0  0  0  0  0  0  0  0  0
  1  2  1  0
  2  3  1  0
  3  4  2  0
  4  5  1  0
  5  6  2  0
  5  7  1  0
  7  8  1  0
  8  9  1  0
  9 10  1  0
 10 11  1  0
 11 12  1  0
 12 13  1  0
 13 14  1  0
 14 15  1  0
 15 16  1  0
 16 17  1  0
 11 18  1  0
 18 19  1  0
  4 20  1  0
 20 21  2  0
 21 22  1  0
 21 23  1  0
 23 24  2  0
 24 25  1  0
 25 26  2  0
 26 27  1  0
 27 28  2  0
 28  3  1  0
 19  8  1  0
 28 23  1  0
 17 12  1  0
M  END
>  <ChemBL_ID>  (520) 
CHEMBL51856

>  <Compound_Key>  (520) 
3

>  <Ki>  (520) 
2.1

>  <database>  (520) 
CHEMBL

>  <Assay_ChEMBL_ID>  (520) 
CHEMBL808906

>  <Document_ChEMBL_ID>  (520) 
CHEMBL1134687

$$$$

     RDKit          2D

 19 20  0  0  0  0  0  0  0  0999 V2000
   -4.4185   -2.6691    0.0000 C   0  0  0  0  0  0  0  0  0  0  0  0
   -3.3007   -1.6689    0.0000 O   0  0  0  0  0  0  0  0  0  0  0  0
   -3.6080   -0.2007    0.0000 C   0  0  0  0  0  0  0  0  0  0  0  0
   -5.0331    0.2672    0.0000 C   0  0  0  0  0  0  0  0  0  0  0  0
   -5.3404    1.7354    0.0000 C   0  0  0  0  0  0  0  0  0  0  0  0
   -4.2225    2.7356    0.0000 C   0  0  0  0  0  0  0  0  0  0  0  0
   -2.7974    2.2677    0.0000 C   0  0  0  0  0  0  0  0  0  0  0  0
   -2.4901    0.7995    0.0000 C   0  0  0  0  0  0  0  0  0  0  0  0
   -1.0650    0.3315    0.0000 C   0  0  0  0  0  0  0  0  0  0  0  0
   -0.7577   -1.1367    0.0000 C   0  0  0  0  0  0  0  0  0  0  0  0
    0.6674   -1.6047    0.0000 N   0  0  0  0  0  0  0  0  0  0  0  0
    0.9747   -3.0729    0.0000 C   0  0  0  0  0  0  0  0  0  0  0  0
    1.7853   -0.6045    0.0000 C   0  0  0  0  0  0  0  0  0  0  0  0
    3.2104   -1.0724    0.0000 C   0  0  0  0  0  0  0  0  0  0  0  0
    4.3282   -0.0722    0.0000 N   0  0  0  0  0  0  0  0  0  0  0  0
    4.1761    1.4200    0.0000 C   0  0  0  0  0  0  0  0  0  0  0  0
    5.5483    2.0259    0.0000 C   0  0  0  0  0  0  0  0  0  0  0  0
    6.5485    0.9080    0.0000 C   0  0  0  0  0  0  0  0  0  0  0  0
    5.7945   -0.3887    0.0000 C   0  0  0  0  0  0  0  0  0  0  0  0
  1  2  1  0
  2  3  1  0
  3  4  2  0
  4  5  1  0
  5  6  2  0
  6  7  1  0
  7  8  2  0
  8  9  1  0
  9 10  1  0
 10 11  1  0
 11 12  1  0
 11 13  1  0
 13 14  1  0
 14 15  1  0
 15 16  1  0
 16 17  1  0
 17 18  1  0
 18 19  1  0
  8  3  1  0
 19 15  1  0
M  END
>  <ChemBL_ID>  (521) 
CHEMBL115956

>  <Compound_Key>  (521) 
10,20c, YZ-018

>  <Ki>  (521) 
144.0

>  <database>  (521) 
CHEMBL

>  <Assay_ChEMBL_ID>  (521) 
CHEMBL808279

>  <Document_ChEMBL_ID>  (521) 
CHEMBL1129631

$$$$

     RDKit          2D

 28 31  0  0  0  0  0  0  0  0999 V2000
    0.2558    2.1493    0.0000 C   0  0  0  0  0  0  0  0  0  0  0  0
    0.1323    0.6544    0.0000 O   0  0  0  0  0  0  0  0  0  0  0  0
    1.3651   -0.2001    0.0000 C   0  0  0  0  0  0  0  0  0  0  0  0
    1.2416   -1.6950    0.0000 C   0  0  0  0  0  0  0  0  0  0  0  0
   -0.1148   -2.3354    0.0000 C   0  0  0  0  0  0  0  0  0  0  0  0
   -0.2384   -3.8303    0.0000 O   0  0  0  0  0  0  0  0  0  0  0  0
   -1.3477   -1.4810    0.0000 N   0  0  0  0  0  0  0  0  0  0  0  0
   -2.7041   -2.1214    0.0000 C   0  0  0  0  0  0  0  0  0  0  0  0
   -3.9369   -1.2670    0.0000 C   0  0  0  0  0  0  0  0  0  0  0  0
   -5.3528   -1.7622    0.0000 C   0  0  0  0  0  0  0  0  0  0  0  0
   -6.2613   -0.5686    0.0000 C   0  0  0  0  0  0  0  0  0  0  0  0
   -5.4068    0.6643    0.0000 C   0  0  0  0  0  0  0  0  0  0  0  0
   -3.9703    0.2326    0.0000 N   0  0  0  0  0  0  0  0  0  0  0  0
   -2.7767    1.1411    0.0000 C   0  0  0  0  0  0  0  0  0  0  0  0
   -1.3931    0.5616    0.0000 C   0  0  0  0  0  0  0  0  0  0  0  0
   -0.1995    1.4701    0.0000 C   0  0  0  0  0  0  0  0  0  0  0  0
   -0.3895    2.9580    0.0000 C   0  0  0  0  0  0  0  0  0  0  0  0
   -1.7730    3.5375    0.0000 C   0  0  0  0  0  0  0  0  0  0  0  0
   -2.9666    2.6290    0.0000 C   0  0  0  0  0  0  0  0  0  0  0  0
    2.4744   -2.5494    0.0000 C   0  0  0  0  0  0  0  0  0  0  0  0
    3.8308   -1.9090    0.0000 C   0  0  0  0  0  0  0  0  0  0  0  0
    5.0637   -2.7634    0.0000 Br  0  0  0  0  0  0  0  0  0  0  0  0
    3.9544   -0.4141    0.0000 C   0  0  0  0  0  0  0  0  0  0  0  0
    5.3108    0.2264    0.0000 C   0  0  0  0  0  0  0  0  0  0  0  0
    5.4343    1.7213    0.0000 C   0  0  0  0  0  0  0  0  0  0  0  0
    4.2015    2.5757    0.0000 C   0  0  0  0  0  0  0  0  0  0  0  0
    2.8451    1.9353    0.0000 C   0  0  0  0  0  0  0  0  0  0  0  0
    2.7215    0.4404    0.0000 C   0  0  0  0  0  0  0  0  0  0  0  0
  1  2  1  0
  2  3  1  0
  3  4  2  0
  4  5  1  0
  5  6  2  0
  5  7  1  0
  7  8  1  0
  9  8  1  1
  9 10  1  0
 10 11  1  0
 11 12  1  0
 12 13  1  0
 13 14  1  0
 14 15  1  0
 15 16  1  0
 16 17  1  0
 17 18  1  0
 18 19  1  0
  4 20  1  0
 20 21  2  0
 21 22  1  0
 21 23  1  0
 23 24  2  0
 24 25  1  0
 25 26  2  0
 26 27  1  0
 27 28  2  0
 28  3  1  0
 13  9  1  0
 19 14  1  0
 28 23  1  0
M  END
>  <ChemBL_ID>  (522) 
CHEMBL53038

>  <Compound_Key>  (522) 
5

>  <Ki>  (522) 
25.0

>  <database>  (522) 
CHEMBL

>  <Assay_ChEMBL_ID>  (522) 
CHEMBL808105

>  <Document_ChEMBL_ID>  (522) 
CHEMBL1146691

$$$$

     RDKit          2D

 21 23  0  0  0  0  0  0  0  0999 V2000
   -0.8635    1.5385    0.0000 C   0  0  0  0  0  0  0  0  0  0  0  0
   -0.2230    1.0640    0.0000 C   0  0  0  0  0  0  0  0  0  0  0  0
   -0.7492   -0.3407    0.0000 C   0  0  0  0  0  0  0  0  0  0  0  0
    0.2041   -1.4988    0.0000 C   0  0  0  0  0  0  0  0  0  0  0  0
    1.6837   -1.2521    0.0000 C   0  0  0  0  0  0  0  0  0  0  0  0
    2.6371   -2.4102    0.0000 C   0  0  0  0  0  0  0  0  0  0  0  0
    4.1167   -2.1636    0.0000 C   0  0  0  0  0  0  0  0  0  0  0  0
    4.6429   -0.7589    0.0000 C   0  0  0  0  0  0  0  0  0  0  0  0
    6.1225   -0.5123    0.0000 O   0  0  0  0  0  0  0  0  0  0  0  0
    3.6895    0.3991    0.0000 C   0  0  0  0  0  0  0  0  0  0  0  0
    2.2099    0.1525    0.0000 C   0  0  0  0  0  0  0  0  0  0  0  0
    1.2566    1.3106    0.0000 C   0  0  0  0  0  0  0  0  0  0  0  0
    1.7828    2.7153    0.0000 C   0  0  0  0  0  0  0  0  0  0  0  0
    0.3032    2.4686    0.0000 C   0  0  0  0  0  0  0  0  0  0  0  0
   -1.1764    2.2220    0.0000 C   0  0  0  0  0  0  0  0  0  0  0  0
   -1.7026    0.8174    0.0000 N   0  0  0  0  0  0  0  0  0  0  0  0
   -3.1822    0.5707    0.0000 C   0  0  0  0  0  0  0  0  0  0  0  0
   -3.7084   -0.8339    0.0000 C   0  0  0  0  0  0  0  0  0  0  0  0
   -5.1880   -1.0805    0.0000 N   0  0  0  0  0  0  0  0  0  0  0  0
   -5.7142   -2.4852    0.0000 C   0  0  0  0  0  0  0  0  0  0  0  0
   -6.1414    0.0775    0.0000 C   0  0  0  0  0  0  0  0  0  0  0  0
  2  1  1  1
  2  3  1  0
  3  4  1  6
  4  5  1  0
  5  6  2  0
  6  7  1  0
  7  8  2  0
  8  9  1  0
  8 10  1  0
 10 11  2  0
 11 12  1  0
 12 13  1  6
 12 14  1  0
 14 15  1  0
 15 16  1  0
 16 17  1  0
 17 18  1  0
 18 19  1  0
 19 20  1  0
 19 21  1  0
 12  2  1  0
 16  3  1  0
 11  5  1  0
M  END
>  <ChemBL_ID>  (523) 
CHEMBL37966

>  <Compound_Key>  (523) 
6a

>  <Ki>  (523) 
347.0

>  <database>  (523) 
CHEMBL

>  <Assay_ChEMBL_ID>  (523) 
CHEMBL805218

>  <Document_ChEMBL_ID>  (523) 
CHEMBL1131505

$$$$

     RDKit          2D

 23 25  0  0  0  0  0  0  0  0999 V2000
   -6.7284    2.1545    0.0000 C   0  0  0  0  0  0  0  0  0  0  0  0
   -5.2353    2.0112    0.0000 C   0  0  0  0  0  0  0  0  0  0  0  0
   -4.6128    0.6465    0.0000 N   0  0  0  0  0  0  0  0  0  0  0  0
   -5.4835   -0.5750    0.0000 C   0  0  0  0  0  0  0  0  0  0  0  0
   -6.9767   -0.4317    0.0000 C   0  0  0  0  0  0  0  0  0  0  0  0
   -3.1197    0.5031    0.0000 C   0  0  0  0  0  0  0  0  0  0  0  0
   -2.4972   -0.8616    0.0000 C   0  0  0  0  0  0  0  0  0  0  0  0
   -1.0041   -1.0049    0.0000 N   0  0  0  0  0  0  0  0  0  0  0  0
   -0.3817   -2.3697    0.0000 C   0  0  0  0  0  0  0  0  0  0  0  0
    1.1115   -2.5130    0.0000 C   0  0  0  0  0  0  0  0  0  0  0  0
    1.9822   -1.2916    0.0000 C   0  0  0  0  0  0  0  0  0  0  0  0
    2.6046   -2.6563    0.0000 C   0  0  0  0  0  0  0  0  0  0  0  0
    2.8529   -0.0701    0.0000 C   0  0  0  0  0  0  0  0  0  0  0  0
    4.3460   -0.2135    0.0000 C   0  0  0  0  0  0  0  0  0  0  0  0
    5.2167    1.0080    0.0000 C   0  0  0  0  0  0  0  0  0  0  0  0
    6.7098    0.8646    0.0000 O   0  0  0  0  0  0  0  0  0  0  0  0
    4.5942    2.3727    0.0000 C   0  0  0  0  0  0  0  0  0  0  0  0
    3.1011    2.5160    0.0000 C   0  0  0  0  0  0  0  0  0  0  0  0
    2.2304    1.2946    0.0000 C   0  0  0  0  0  0  0  0  0  0  0  0
    0.7373    1.4379    0.0000 C   0  0  0  0  0  0  0  0  0  0  0  0
   -0.1334    0.2165    0.0000 C   0  0  0  0  0  0  0  0  0  0  0  0
    0.4890   -1.1483    0.0000 C   0  0  0  0  0  0  0  0  0  0  0  0
    0.1971   -1.8901    0.0000 C   0  0  0  0  0  0  0  0  0  0  0  0
  1  2  1  0
  2  3  1  0
  3  4  1  0
  4  5  1  0
  3  6  1  0
  6  7  1  0
  7  8  1  0
  8  9  1  0
  9 10  1  0
 10 11  1  0
 11 12  1  1
 11 13  1  0
 13 14  2  0
 14 15  1  0
 15 16  1  0
 15 17  2  0
 17 18  1  0
 18 19  2  0
 19 20  1  0
 21 20  1  1
 21 22  1  0
 22 23  1  6
 21  8  1  0
 22 11  1  0
 19 13  1  0
M  END
>  <ChemBL_ID>  (524) 
CHEMBL39284

>  <Compound_Key>  (524) 
5a

>  <Ki>  (524) 
378.0

>  <database>  (524) 
CHEMBL

>  <Assay_ChEMBL_ID>  (524) 
CHEMBL805218

>  <Document_ChEMBL_ID>  (524) 
CHEMBL1131505

$$$$

     RDKit          2D

 24 27  0  0  0  0  0  0  0  0999 V2000
    0.2438    1.7102    0.0000 C   0  0  0  0  0  0  0  0  0  0  0  0
    0.8404    1.1814    0.0000 C   0  0  0  0  0  0  0  0  0  0  0  0
    0.1932   -0.1718    0.0000 C   0  0  0  0  0  0  0  0  0  0  0  0
    1.0416   -1.4089    0.0000 C   0  0  0  0  0  0  0  0  0  0  0  0
    2.5371   -1.2927    0.0000 C   0  0  0  0  0  0  0  0  0  0  0  0
    3.3854   -2.5297    0.0000 C   0  0  0  0  0  0  0  0  0  0  0  0
    4.8809   -2.4136    0.0000 C   0  0  0  0  0  0  0  0  0  0  0  0
    5.5281   -1.0604    0.0000 C   0  0  0  0  0  0  0  0  0  0  0  0
    7.0235   -0.9442    0.0000 O   0  0  0  0  0  0  0  0  0  0  0  0
    4.6797    0.1767    0.0000 C   0  0  0  0  0  0  0  0  0  0  0  0
    3.1842    0.0605    0.0000 C   0  0  0  0  0  0  0  0  0  0  0  0
    2.3358    1.2976    0.0000 C   0  0  0  0  0  0  0  0  0  0  0  0
    2.9830    2.6508    0.0000 C   0  0  0  0  0  0  0  0  0  0  0  0
    1.4875    2.5346    0.0000 C   0  0  0  0  0  0  0  0  0  0  0  0
   -0.0080    2.4184    0.0000 C   0  0  0  0  0  0  0  0  0  0  0  0
   -0.6551    1.0652    0.0000 N   0  0  0  0  0  0  0  0  0  0  0  0
   -2.1506    0.9491    0.0000 C   0  0  0  0  0  0  0  0  0  0  0  0
   -2.7978   -0.4042    0.0000 C   0  0  0  0  0  0  0  0  0  0  0  0
   -4.2933   -0.5203    0.0000 N   0  0  0  0  0  0  0  0  0  0  0  0
   -5.1416    0.7167    0.0000 C   0  0  0  0  0  0  0  0  0  0  0  0
   -6.6371    0.6005    0.0000 C   0  0  0  0  0  0  0  0  0  0  0  0
   -7.2843   -0.7527    0.0000 O   0  0  0  0  0  0  0  0  0  0  0  0
   -6.4359   -1.9897    0.0000 C   0  0  0  0  0  0  0  0  0  0  0  0
   -4.9404   -1.8736    0.0000 C   0  0  0  0  0  0  0  0  0  0  0  0
  2  1  1  1
  2  3  1  0
  3  4  1  6
  4  5  1  0
  5  6  2  0
  6  7  1  0
  7  8  2  0
  8  9  1  0
  8 10  1  0
 10 11  2  0
 11 12  1  0
 12 13  1  6
 12 14  1  0
 14 15  1  0
 15 16  1  0
 16 17  1  0
 17 18  1  0
 18 19  1  0
 19 20  1  0
 20 21  1  0
 21 22  1  0
 22 23  1  0
 23 24  1  0
 12  2  1  0
 24 19  1  0
 16  3  1  0
 11  5  1  0
M  END
>  <ChemBL_ID>  (525) 
CHEMBL288285

>  <Compound_Key>  (525) 
2a

>  <Ki>  (525) 
300.0

>  <database>  (525) 
CHEMBL

>  <Assay_ChEMBL_ID>  (525) 
CHEMBL805218

>  <Document_ChEMBL_ID>  (525) 
CHEMBL1131505

$$$$

     RDKit          2D

 26 29  0  0  0  0  0  0  0  0999 V2000
    0.4033    1.3056    0.0000 C   0  0  0  0  0  0  0  0  0  0  0  0
    1.0899    0.9006    0.0000 C   0  0  0  0  0  0  0  0  0  0  0  0
    0.7133   -0.5514    0.0000 C   0  0  0  0  0  0  0  0  0  0  0  0
    1.7824   -1.6035    0.0000 C   0  0  0  0  0  0  0  0  0  0  0  0
    3.2281   -1.2037    0.0000 C   0  0  0  0  0  0  0  0  0  0  0  0
    4.2972   -2.2559    0.0000 C   0  0  0  0  0  0  0  0  0  0  0  0
    5.7430   -1.8561    0.0000 C   0  0  0  0  0  0  0  0  0  0  0  0
    6.1196   -0.4041    0.0000 C   0  0  0  0  0  0  0  0  0  0  0  0
    7.5654   -0.0043    0.0000 O   0  0  0  0  0  0  0  0  0  0  0  0
    5.0505    0.6480    0.0000 C   0  0  0  0  0  0  0  0  0  0  0  0
    3.6048    0.2482    0.0000 C   0  0  0  0  0  0  0  0  0  0  0  0
    2.5357    1.3004    0.0000 C   0  0  0  0  0  0  0  0  0  0  0  0
    2.9123    2.7523    0.0000 C   0  0  0  0  0  0  0  0  0  0  0  0
    1.4666    2.3525    0.0000 C   0  0  0  0  0  0  0  0  0  0  0  0
    0.0208    1.9527    0.0000 C   0  0  0  0  0  0  0  0  0  0  0  0
   -0.3558    0.5008    0.0000 N   0  0  0  0  0  0  0  0  0  0  0  0
   -1.8016    0.1010    0.0000 C   0  0  0  0  0  0  0  0  0  0  0  0
   -2.1782   -1.3510    0.0000 C   0  0  0  0  0  0  0  0  0  0  0  0
   -3.6239   -1.7508    0.0000 N   0  0  0  0  0  0  0  0  0  0  0  0
   -4.0006   -3.2027    0.0000 C   0  0  0  0  0  0  0  0  0  0  0  0
   -4.6930   -0.6986    0.0000 C   0  0  0  0  0  0  0  0  0  0  0  0
   -4.3164    0.7533    0.0000 C   0  0  0  0  0  0  0  0  0  0  0  0
   -5.3855    1.8055    0.0000 C   0  0  0  0  0  0  0  0  0  0  0  0
   -6.8312    1.4057    0.0000 C   0  0  0  0  0  0  0  0  0  0  0  0
   -7.2079   -0.0463    0.0000 C   0  0  0  0  0  0  0  0  0  0  0  0
   -6.1388   -1.0984    0.0000 C   0  0  0  0  0  0  0  0  0  0  0  0
  2  1  1  1
  2  3  1  0
  3  4  1  6
  4  5  1  0
  5  6  2  0
  6  7  1  0
  7  8  2  0
  8  9  1  0
  8 10  1  0
 10 11  2  0
 11 12  1  0
 12 13  1  6
 12 14  1  0
 14 15  1  0
 15 16  1  0
 16 17  1  0
 17 18  1  0
 18 19  1  0
 19 20  1  0
 19 21  1  0
 21 22  2  0
 22 23  1  0
 23 24  2  0
 24 25  1  0
 25 26  2  0
 12  2  1  0
 26 21  1  0
 16  3  1  0
 11  5  1  0
M  END
>  <ChemBL_ID>  (526) 
CHEMBL289948

>  <Compound_Key>  (526) 
9c

>  <Ki>  (526) 
124.0

>  <database>  (526) 
CHEMBL

>  <Assay_ChEMBL_ID>  (526) 
CHEMBL805218

>  <Document_ChEMBL_ID>  (526) 
CHEMBL1131505

$$$$

     RDKit          2D

 26 29  0  0  0  0  0  0  0  0999 V2000
    1.4023    1.9530    0.0000 C   0  0  0  0  0  0  0  0  0  0  0  0
    1.9128    1.3407    0.0000 C   0  0  0  0  0  0  0  0  0  0  0  0
    1.0699    0.0999    0.0000 C   0  0  0  0  0  0  0  0  0  0  0  0
    1.7231   -1.2504    0.0000 C   0  0  0  0  0  0  0  0  0  0  0  0
    3.2190   -1.3599    0.0000 C   0  0  0  0  0  0  0  0  0  0  0  0
    3.8722   -2.7103    0.0000 C   0  0  0  0  0  0  0  0  0  0  0  0
    5.3682   -2.8198    0.0000 C   0  0  0  0  0  0  0  0  0  0  0  0
    6.2110   -1.5790    0.0000 C   0  0  0  0  0  0  0  0  0  0  0  0
    7.7070   -1.6885    0.0000 O   0  0  0  0  0  0  0  0  0  0  0  0
    5.5579   -0.2287    0.0000 C   0  0  0  0  0  0  0  0  0  0  0  0
    4.0619   -0.1191    0.0000 C   0  0  0  0  0  0  0  0  0  0  0  0
    3.4088    1.2312    0.0000 C   0  0  0  0  0  0  0  0  0  0  0  0
    4.2516    2.4720    0.0000 C   0  0  0  0  0  0  0  0  0  0  0  0
    2.7556    2.5815    0.0000 C   0  0  0  0  0  0  0  0  0  0  0  0
    1.2596    2.6911    0.0000 C   0  0  0  0  0  0  0  0  0  0  0  0
    0.4168    1.4503    0.0000 N   0  0  0  0  0  0  0  0  0  0  0  0
   -1.0792    1.5598    0.0000 C   0  0  0  0  0  0  0  0  0  0  0  0
   -1.9221    0.3190    0.0000 C   0  0  0  0  0  0  0  0  0  0  0  0
   -3.4181    0.4285    0.0000 N   0  0  0  0  0  0  0  0  0  0  0  0
   -4.2609   -0.8123    0.0000 C   0  0  0  0  0  0  0  0  0  0  0  0
   -5.7569   -0.7027    0.0000 C   0  0  0  0  0  0  0  0  0  0  0  0
   -6.4101    0.6476    0.0000 C   0  0  0  0  0  0  0  0  0  0  0  0
   -7.9061    0.7571    0.0000 C   0  0  0  0  0  0  0  0  0  0  0  0
   -8.7489   -0.4837    0.0000 C   0  0  0  0  0  0  0  0  0  0  0  0
   -8.0958   -1.8340    0.0000 C   0  0  0  0  0  0  0  0  0  0  0  0
   -6.5998   -1.9435    0.0000 C   0  0  0  0  0  0  0  0  0  0  0  0
  2  1  1  1
  2  3  1  0
  3  4  1  6
  4  5  1  0
  5  6  2  0
  6  7  1  0
  7  8  2  0
  8  9  1  0
  8 10  1  0
 10 11  2  0
 11 12  1  0
 12 13  1  6
 12 14  1  0
 14 15  1  0
 15 16  1  0
 16 17  1  0
 17 18  1  0
 18 19  1  0
 19 20  1  0
 20 21  1  0
 21 22  2  0
 22 23  1  0
 23 24  2  0
 24 25  1  0
 25 26  2  0
 12  2  1  0
 26 21  1  0
 16  3  1  0
 11  5  1  0
M  END
>  <ChemBL_ID>  (527) 
CHEMBL290235

>  <Compound_Key>  (527) 
11c

>  <Ki>  (527) 
187.0

>  <database>  (527) 
CHEMBL

>  <Assay_ChEMBL_ID>  (527) 
CHEMBL805218

>  <Document_ChEMBL_ID>  (527) 
CHEMBL1131505

$$$$

     RDKit          2D

 27 30  0  0  0  0  0  0  0  0999 V2000
   -5.4107    3.2311    0.0000 C   0  0  0  0  0  0  0  0  0  0  0  0
   -3.9480    2.8990    0.0000 C   0  0  0  0  0  0  0  0  0  0  0  0
   -3.5042    1.4661    0.0000 N   0  0  0  0  0  0  0  0  0  0  0  0
   -2.0414    1.1340    0.0000 C   0  0  0  0  0  0  0  0  0  0  0  0
   -1.5977   -0.2988    0.0000 C   0  0  0  0  0  0  0  0  0  0  0  0
   -0.1349   -0.6310    0.0000 N   0  0  0  0  0  0  0  0  0  0  0  0
    0.3088   -2.0638    0.0000 C   0  0  0  0  0  0  0  0  0  0  0  0
    1.7716   -2.3960    0.0000 C   0  0  0  0  0  0  0  0  0  0  0  0
    2.7906   -1.2953    0.0000 C   0  0  0  0  0  0  0  0  0  0  0  0
    3.2344   -2.7281    0.0000 C   0  0  0  0  0  0  0  0  0  0  0  0
    3.8096   -0.1945    0.0000 C   0  0  0  0  0  0  0  0  0  0  0  0
    5.2724   -0.5267    0.0000 C   0  0  0  0  0  0  0  0  0  0  0  0
    6.2914    0.5741    0.0000 C   0  0  0  0  0  0  0  0  0  0  0  0
    7.7542    0.2419    0.0000 O   0  0  0  0  0  0  0  0  0  0  0  0
    5.8477    2.0069    0.0000 C   0  0  0  0  0  0  0  0  0  0  0  0
    4.3849    2.3391    0.0000 C   0  0  0  0  0  0  0  0  0  0  0  0
    3.3659    1.2383    0.0000 C   0  0  0  0  0  0  0  0  0  0  0  0
    1.9031    1.5705    0.0000 C   0  0  0  0  0  0  0  0  0  0  0  0
    0.8841    0.4697    0.0000 C   0  0  0  0  0  0  0  0  0  0  0  0
    1.3278   -0.9631    0.0000 C   0  0  0  0  0  0  0  0  0  0  0  0
    0.9439   -1.6617    0.0000 C   0  0  0  0  0  0  0  0  0  0  0  0
   -4.5232    0.3654    0.0000 C   0  0  0  0  0  0  0  0  0  0  0  0
   -5.9860    0.6976    0.0000 C   0  0  0  0  0  0  0  0  0  0  0  0
   -7.0050   -0.4032    0.0000 C   0  0  0  0  0  0  0  0  0  0  0  0
   -6.5613   -1.8360    0.0000 C   0  0  0  0  0  0  0  0  0  0  0  0
   -5.0985   -2.1682    0.0000 C   0  0  0  0  0  0  0  0  0  0  0  0
   -4.0795   -1.0674    0.0000 C   0  0  0  0  0  0  0  0  0  0  0  0
  1  2  1  0
  2  3  1  0
  3  4  1  0
  4  5  1  0
  5  6  1  0
  6  7  1  0
  7  8  1  0
  8  9  1  0
  9 10  1  1
  9 11  1  0
 11 12  2  0
 12 13  1  0
 13 14  1  0
 13 15  2  0
 15 16  1  0
 16 17  2  0
 17 18  1  0
 19 18  1  1
 19 20  1  0
 20 21  1  6
  3 22  1  0
 22 23  2  0
 23 24  1  0
 24 25  2  0
 25 26  1  0
 26 27  2  0
 19  6  1  0
 27 22  1  0
 20  9  1  0
 17 11  1  0
M  END
>  <ChemBL_ID>  (528) 
CHEMBL290032

>  <Compound_Key>  (528) 
10c

>  <Ki>  (528) 
151.0

>  <database>  (528) 
CHEMBL

>  <Assay_ChEMBL_ID>  (528) 
CHEMBL805218

>  <Document_ChEMBL_ID>  (528) 
CHEMBL1131505

$$$$

     RDKit          2D

 23 26  0  0  0  0  0  0  0  0999 V2000
   -0.0859    1.6775    0.0000 C   0  0  0  0  0  0  0  0  0  0  0  0
    0.5199    1.1592    0.0000 C   0  0  0  0  0  0  0  0  0  0  0  0
   -0.1034   -0.2051    0.0000 C   0  0  0  0  0  0  0  0  0  0  0  0
    0.7665   -1.4271    0.0000 C   0  0  0  0  0  0  0  0  0  0  0  0
    2.2597   -1.2847    0.0000 C   0  0  0  0  0  0  0  0  0  0  0  0
    3.1296   -2.5067    0.0000 C   0  0  0  0  0  0  0  0  0  0  0  0
    4.6228   -2.3643    0.0000 C   0  0  0  0  0  0  0  0  0  0  0  0
    5.2462   -1.0000    0.0000 C   0  0  0  0  0  0  0  0  0  0  0  0
    6.7394   -0.8576    0.0000 O   0  0  0  0  0  0  0  0  0  0  0  0
    4.3762    0.2220    0.0000 C   0  0  0  0  0  0  0  0  0  0  0  0
    2.8830    0.0796    0.0000 C   0  0  0  0  0  0  0  0  0  0  0  0
    2.0131    1.3016    0.0000 C   0  0  0  0  0  0  0  0  0  0  0  0
    2.6364    2.6660    0.0000 C   0  0  0  0  0  0  0  0  0  0  0  0
    1.1432    2.5236    0.0000 C   0  0  0  0  0  0  0  0  0  0  0  0
   -0.3501    2.3812    0.0000 C   0  0  0  0  0  0  0  0  0  0  0  0
   -0.9734    1.0169    0.0000 N   0  0  0  0  0  0  0  0  0  0  0  0
   -2.4666    0.8745    0.0000 C   0  0  0  0  0  0  0  0  0  0  0  0
   -3.0899   -0.4899    0.0000 C   0  0  0  0  0  0  0  0  0  0  0  0
   -4.5831   -0.6323    0.0000 N   0  0  0  0  0  0  0  0  0  0  0  0
   -5.3456   -1.9240    0.0000 C   0  0  0  0  0  0  0  0  0  0  0  0
   -6.8098   -1.5980    0.0000 C   0  0  0  0  0  0  0  0  0  0  0  0
   -6.9522   -0.1048    0.0000 C   0  0  0  0  0  0  0  0  0  0  0  0
   -5.5760    0.4921    0.0000 C   0  0  0  0  0  0  0  0  0  0  0  0
  2  1  1  1
  2  3  1  0
  3  4  1  6
  4  5  1  0
  5  6  2  0
  6  7  1  0
  7  8  2  0
  8  9  1  0
  8 10  1  0
 10 11  2  0
 11 12  1  0
 12 13  1  6
 12 14  1  0
 14 15  1  0
 15 16  1  0
 16 17  1  0
 17 18  1  0
 18 19  1  0
 19 20  1  0
 20 21  1  0
 21 22  1  0
 22 23  1  0
 12  2  1  0
 23 19  1  0
 16  3  1  0
 11  5  1  0
M  END
>  <ChemBL_ID>  (529) 
CHEMBL43398

>  <Compound_Key>  (529) 
4a

>  <Ki>  (529) 
260.0

>  <database>  (529) 
CHEMBL

>  <Assay_ChEMBL_ID>  (529) 
CHEMBL805218

>  <Document_ChEMBL_ID>  (529) 
CHEMBL1131505

$$$$

     RDKit          2D

 24 27  0  0  0  0  0  0  0  0999 V2000
    0.2438    1.7102    0.0000 C   0  0  0  0  0  0  0  0  0  0  0  0
    0.8404    1.1814    0.0000 C   0  0  0  0  0  0  0  0  0  0  0  0
    0.1932   -0.1718    0.0000 C   0  0  0  0  0  0  0  0  0  0  0  0
    1.0416   -1.4089    0.0000 C   0  0  0  0  0  0  0  0  0  0  0  0
    2.5371   -1.2927    0.0000 C   0  0  0  0  0  0  0  0  0  0  0  0
    3.3854   -2.5297    0.0000 C   0  0  0  0  0  0  0  0  0  0  0  0
    4.8809   -2.4136    0.0000 C   0  0  0  0  0  0  0  0  0  0  0  0
    5.5281   -1.0604    0.0000 C   0  0  0  0  0  0  0  0  0  0  0  0
    7.0235   -0.9442    0.0000 O   0  0  0  0  0  0  0  0  0  0  0  0
    4.6797    0.1767    0.0000 C   0  0  0  0  0  0  0  0  0  0  0  0
    3.1842    0.0605    0.0000 C   0  0  0  0  0  0  0  0  0  0  0  0
    2.3358    1.2976    0.0000 C   0  0  0  0  0  0  0  0  0  0  0  0
    2.9830    2.6508    0.0000 C   0  0  0  0  0  0  0  0  0  0  0  0
    1.4875    2.5346    0.0000 C   0  0  0  0  0  0  0  0  0  0  0  0
   -0.0080    2.4184    0.0000 C   0  0  0  0  0  0  0  0  0  0  0  0
   -0.6551    1.0652    0.0000 N   0  0  0  0  0  0  0  0  0  0  0  0
   -2.1506    0.9491    0.0000 C   0  0  0  0  0  0  0  0  0  0  0  0
   -2.7978   -0.4042    0.0000 C   0  0  0  0  0  0  0  0  0  0  0  0
   -4.2933   -0.5203    0.0000 N   0  0  0  0  0  0  0  0  0  0  0  0
   -5.1416    0.7167    0.0000 C   0  0  0  0  0  0  0  0  0  0  0  0
   -6.6371    0.6005    0.0000 C   0  0  0  0  0  0  0  0  0  0  0  0
   -7.2843   -0.7527    0.0000 C   0  0  0  0  0  0  0  0  0  0  0  0
   -6.4359   -1.9897    0.0000 C   0  0  0  0  0  0  0  0  0  0  0  0
   -4.9404   -1.8736    0.0000 C   0  0  0  0  0  0  0  0  0  0  0  0
  2  1  1  1
  2  3  1  0
  3  4  1  6
  4  5  1  0
  5  6  2  0
  6  7  1  0
  7  8  2  0
  8  9  1  0
  8 10  1  0
 10 11  2  0
 11 12  1  0
 12 13  1  6
 12 14  1  0
 14 15  1  0
 15 16  1  0
 16 17  1  0
 17 18  1  0
 18 19  1  0
 19 20  1  0
 20 21  1  0
 21 22  1  0
 22 23  1  0
 23 24  1  0
 12  2  1  0
 24 19  1  0
 16  3  1  0
 11  5  1  0
M  END
>  <ChemBL_ID>  (530) 
CHEMBL41313

>  <Compound_Key>  (530) 
1a

>  <Ki>  (530) 
114.0

>  <database>  (530) 
CHEMBL

>  <Assay_ChEMBL_ID>  (530) 
CHEMBL805218

>  <Document_ChEMBL_ID>  (530) 
CHEMBL1131505

$$$$

     RDKit          2D

 25 28  0  0  0  0  0  0  0  0999 V2000
    0.5626    1.7332    0.0000 C   0  0  0  0  0  0  0  0  0  0  0  0
    1.1519    1.1964    0.0000 C   0  0  0  0  0  0  0  0  0  0  0  0
    0.4866   -0.1480    0.0000 C   0  0  0  0  0  0  0  0  0  0  0  0
    1.3183   -1.3963    0.0000 C   0  0  0  0  0  0  0  0  0  0  0  0
    2.8152   -1.3003    0.0000 C   0  0  0  0  0  0  0  0  0  0  0  0
    3.6468   -2.5487    0.0000 C   0  0  0  0  0  0  0  0  0  0  0  0
    5.1437   -2.4526    0.0000 C   0  0  0  0  0  0  0  0  0  0  0  0
    5.8090   -1.1082    0.0000 C   0  0  0  0  0  0  0  0  0  0  0  0
    7.3059   -1.0122    0.0000 O   0  0  0  0  0  0  0  0  0  0  0  0
    4.9774    0.1401    0.0000 C   0  0  0  0  0  0  0  0  0  0  0  0
    3.4805    0.0441    0.0000 C   0  0  0  0  0  0  0  0  0  0  0  0
    2.6488    1.2925    0.0000 C   0  0  0  0  0  0  0  0  0  0  0  0
    3.3141    2.6368    0.0000 C   0  0  0  0  0  0  0  0  0  0  0  0
    1.8172    2.5408    0.0000 C   0  0  0  0  0  0  0  0  0  0  0  0
    0.3203    2.4448    0.0000 C   0  0  0  0  0  0  0  0  0  0  0  0
   -0.3450    1.1004    0.0000 N   0  0  0  0  0  0  0  0  0  0  0  0
   -1.8419    1.0044    0.0000 C   0  0  0  0  0  0  0  0  0  0  0  0
   -2.5072   -0.3400    0.0000 C   0  0  0  0  0  0  0  0  0  0  0  0
   -4.0041   -0.4361    0.0000 N   0  0  0  0  0  0  0  0  0  0  0  0
   -4.5671   -1.8264    0.0000 C   0  0  0  0  0  0  0  0  0  0  0  0
   -6.0051   -2.2531    0.0000 C   0  0  0  0  0  0  0  0  0  0  0  0
   -7.2354   -1.3949    0.0000 C   0  0  0  0  0  0  0  0  0  0  0  0
   -7.3314    0.1020    0.0000 C   0  0  0  0  0  0  0  0  0  0  0  0
   -6.2209    1.1104    0.0000 C   0  0  0  0  0  0  0  0  0  0  0  0
   -4.7402    0.8709    0.0000 C   0  0  0  0  0  0  0  0  0  0  0  0
  2  1  1  1
  2  3  1  0
  3  4  1  6
  4  5  1  0
  5  6  2  0
  6  7  1  0
  7  8  2  0
  8  9  1  0
  8 10  1  0
 10 11  2  0
 11 12  1  0
 12 13  1  6
 12 14  1  0
 14 15  1  0
 15 16  1  0
 16 17  1  0
 17 18  1  0
 18 19  1  0
 19 20  1  0
 20 21  1  0
 21 22  1  0
 22 23  1  0
 23 24  1  0
 24 25  1  0
 12  2  1  0
 25 19  1  0
 16  3  1  0
 11  5  1  0
M  END
>  <ChemBL_ID>  (531) 
CHEMBL290675

>  <Compound_Key>  (531) 
3a

>  <Ki>  (531) 
151.0

>  <database>  (531) 
CHEMBL

>  <Assay_ChEMBL_ID>  (531) 
CHEMBL805218

>  <Document_ChEMBL_ID>  (531) 
CHEMBL1131505

$$$$

     RDKit          2D

 30 33  0  0  0  0  0  0  0  0999 V2000
   -4.5646   -2.7703    0.0000 O   0  0  0  0  0  0  0  0  0  0  0  0
   -4.3290   -1.2890    0.0000 C   0  0  0  0  0  0  0  0  0  0  0  0
   -2.9282   -0.7523    0.0000 O   0  0  0  0  0  0  0  0  0  0  0  0
   -1.7631   -1.6971    0.0000 C   0  0  0  0  0  0  0  0  0  0  0  0
   -0.3624   -1.1605    0.0000 C   0  0  0  0  0  0  0  0  0  0  0  0
    0.8027   -2.1052    0.0000 C   0  0  0  0  0  0  0  0  0  0  0  0
    2.2034   -1.5686    0.0000 N   0  0  0  0  0  0  0  0  0  0  0  0
    3.3685   -2.5134    0.0000 C   0  0  0  0  0  0  0  0  0  0  0  0
    4.7692   -1.9767    0.0000 C   0  0  0  0  0  0  0  0  0  0  0  0
    5.0049   -0.4954    0.0000 C   0  0  0  0  0  0  0  0  0  0  0  0
    6.4056    0.0413    0.0000 C   0  0  0  0  0  0  0  0  0  0  0  0
    7.5707   -0.9035    0.0000 C   0  0  0  0  0  0  0  0  0  0  0  0
    8.9714   -0.3669    0.0000 C   0  0  0  0  0  0  0  0  0  0  0  0
    9.2070    1.1145    0.0000 C   0  0  0  0  0  0  0  0  0  0  0  0
    8.0420    2.0593    0.0000 C   0  0  0  0  0  0  0  0  0  0  0  0
    6.6412    1.5226    0.0000 C   0  0  0  0  0  0  0  0  0  0  0  0
    3.8398    0.4494    0.0000 C   0  0  0  0  0  0  0  0  0  0  0  0
    2.4390   -0.0872    0.0000 C   0  0  0  0  0  0  0  0  0  0  0  0
   -5.4940   -0.3442    0.0000 C   0  0  0  0  0  0  0  0  0  0  0  0
   -4.4327    0.7157    0.0000 C   0  0  0  0  0  0  0  0  0  0  0  0
   -2.9841    0.3265    0.0000 C   0  0  0  0  0  0  0  0  0  0  0  0
   -1.9227    1.3865    0.0000 C   0  0  0  0  0  0  0  0  0  0  0  0
   -2.3100    2.8357    0.0000 C   0  0  0  0  0  0  0  0  0  0  0  0
   -1.2486    3.8956    0.0000 I   0  0  0  0  0  0  0  0  0  0  0  0
   -3.7586    3.2248    0.0000 C   0  0  0  0  0  0  0  0  0  0  0  0
   -4.8200    2.1649    0.0000 C   0  0  0  0  0  0  0  0  0  0  0  0
   -6.4373    0.8221    0.0000 C   0  0  0  0  0  0  0  0  0  0  0  0
   -7.8380    0.2855    0.0000 C   0  0  0  0  0  0  0  0  0  0  0  0
   -7.7605   -1.2125    0.0000 C   0  0  0  0  0  0  0  0  0  0  0  0
   -6.3118   -1.6017    0.0000 C   0  0  0  0  0  0  0  0  0  0  0  0
  1  2  2  0
  2  3  1  0
  3  4  1  0
  4  5  1  0
  5  6  1  0
  6  7  1  0
  7  8  1  0
  8  9  1  0
  9 10  1  0
 10 11  1  0
 11 12  2  0
 12 13  1  0
 13 14  2  0
 14 15  1  0
 15 16  2  0
 10 17  1  0
 17 18  1  0
  2 19  1  0
 19 20  1  0
 20 21  2  0
 21 22  1  0
 22 23  2  0
 23 24  1  0
 23 25  1  0
 25 26  2  0
 19 27  1  0
 27 28  1  0
 28 29  1  0
 29 30  1  0
 18  7  1  0
 30 19  1  0
 16 11  1  0
 26 20  1  0
M  END
>  <ChemBL_ID>  (532) 
CHEMBL556409

>  <Compound_Key>  (532) 
27

>  <Ki>  (532) 
6.49

>  <database>  (532) 
CHEMBL

>  <Assay_ChEMBL_ID>  (532) 
CHEMBL805220

>  <Document_ChEMBL_ID>  (532) 
CHEMBL1127555

$$$$

     RDKit          2D

 31 34  0  0  0  0  0  0  0  0999 V2000
    7.9179   -4.1333    0.0000 C   0  0  0  0  0  0  0  0  0  0  0  0
    8.3419   -2.6945    0.0000 O   0  0  0  0  0  0  0  0  0  0  0  0
    7.3078   -1.6079    0.0000 C   0  0  0  0  0  0  0  0  0  0  0  0
    5.8497   -1.9601    0.0000 C   0  0  0  0  0  0  0  0  0  0  0  0
    4.8157   -0.8735    0.0000 C   0  0  0  0  0  0  0  0  0  0  0  0
    5.2396    0.5653    0.0000 C   0  0  0  0  0  0  0  0  0  0  0  0
    4.2056    1.6519    0.0000 C   0  0  0  0  0  0  0  0  0  0  0  0
    3.2330    0.5099    0.0000 C   0  0  0  0  0  0  0  0  0  0  0  0
    3.7357   -0.9034    0.0000 O   0  0  0  0  0  0  0  0  0  0  0  0
    1.7577    0.7811    0.0000 O   0  0  0  0  0  0  0  0  0  0  0  0
    0.7852   -0.3609    0.0000 C   0  0  0  0  0  0  0  0  0  0  0  0
   -0.6901   -0.0896    0.0000 C   0  0  0  0  0  0  0  0  0  0  0  0
   -1.6626   -1.2316    0.0000 C   0  0  0  0  0  0  0  0  0  0  0  0
   -3.1379   -0.9604    0.0000 N   0  0  0  0  0  0  0  0  0  0  0  0
   -3.6406    0.4529    0.0000 C   0  0  0  0  0  0  0  0  0  0  0  0
   -5.1159    0.7241    0.0000 C   0  0  0  0  0  0  0  0  0  0  0  0
   -6.0884   -0.4179    0.0000 C   0  0  0  0  0  0  0  0  0  0  0  0
   -7.5637   -0.1466    0.0000 C   0  0  0  0  0  0  0  0  0  0  0  0
   -8.0664    1.2666    0.0000 C   0  0  0  0  0  0  0  0  0  0  0  0
   -9.5417    1.5379    0.0000 C   0  0  0  0  0  0  0  0  0  0  0  0
  -10.5142    0.3959    0.0000 C   0  0  0  0  0  0  0  0  0  0  0  0
  -10.0115   -1.0174    0.0000 C   0  0  0  0  0  0  0  0  0  0  0  0
   -8.5362   -1.2886    0.0000 C   0  0  0  0  0  0  0  0  0  0  0  0
   -5.5857   -1.8311    0.0000 C   0  0  0  0  0  0  0  0  0  0  0  0
   -4.1104   -2.1024    0.0000 C   0  0  0  0  0  0  0  0  0  0  0  0
    2.9682    2.4997    0.0000 C   0  0  0  0  0  0  0  0  0  0  0  0
    3.3921    3.9386    0.0000 C   0  0  0  0  0  0  0  0  0  0  0  0
    4.8916    3.9800    0.0000 C   0  0  0  0  0  0  0  0  0  0  0  0
    5.3943    2.5667    0.0000 C   0  0  0  0  0  0  0  0  0  0  0  0
    6.6977    0.9175    0.0000 C   0  0  0  0  0  0  0  0  0  0  0  0
    7.7318   -0.1691    0.0000 C   0  0  0  0  0  0  0  0  0  0  0  0
  1  2  1  0
  2  3  1  0
  3  4  2  0
  4  5  1  0
  5  6  2  0
  6  7  1  0
  7  8  1  0
  8  9  2  0
  8 10  1  0
 10 11  1  0
 11 12  1  0
 12 13  1  0
 13 14  1  0
 14 15  1  0
 15 16  1  0
 16 17  1  0
 17 18  1  0
 18 19  2  0
 19 20  1  0
 20 21  2  0
 21 22  1  0
 22 23  2  0
 17 24  1  0
 24 25  1  0
  7 26  1  0
 26 27  1  0
 27 28  1  0
 28 29  1  0
  6 30  1  0
 30 31  2  0
 31  3  1  0
 29  7  1  0
 25 14  1  0
 23 18  1  0
M  END
>  <ChemBL_ID>  (533) 
CHEMBL537464

>  <Compound_Key>  (533) 
28

>  <Ki>  (533) 
1.71

>  <database>  (533) 
CHEMBL

>  <Assay_ChEMBL_ID>  (533) 
CHEMBL805220

>  <Document_ChEMBL_ID>  (533) 
CHEMBL1127555

$$$$

     RDKit          2D

 30 33  0  0  0  0  0  0  0  0999 V2000
    4.9608   -5.3155    0.0000 C   0  0  0  0  0  0  0  0  0  0  0  0
    5.9645   -4.2008    0.0000 O   0  0  0  0  0  0  0  0  0  0  0  0
    5.5009   -2.7742    0.0000 C   0  0  0  0  0  0  0  0  0  0  0  0
    4.0337   -2.4624    0.0000 C   0  0  0  0  0  0  0  0  0  0  0  0
    3.5701   -1.0358    0.0000 C   0  0  0  0  0  0  0  0  0  0  0  0
    4.5738    0.0789    0.0000 C   0  0  0  0  0  0  0  0  0  0  0  0
    4.1102    1.5055    0.0000 C   0  0  0  0  0  0  0  0  0  0  0  0
    2.7399    0.8953    0.0000 C   0  0  0  0  0  0  0  0  0  0  0  0
    2.5831   -0.5965    0.0000 O   0  0  0  0  0  0  0  0  0  0  0  0
    1.5263    1.7770    0.0000 O   0  0  0  0  0  0  0  0  0  0  0  0
    0.1560    1.1668    0.0000 C   0  0  0  0  0  0  0  0  0  0  0  0
   -1.0575    2.0485    0.0000 C   0  0  0  0  0  0  0  0  0  0  0  0
   -2.4278    1.4383    0.0000 N   0  0  0  0  0  0  0  0  0  0  0  0
   -3.6414    2.3200    0.0000 C   0  0  0  0  0  0  0  0  0  0  0  0
   -5.0117    1.7098    0.0000 C   0  0  0  0  0  0  0  0  0  0  0  0
   -5.1684    0.2180    0.0000 C   0  0  0  0  0  0  0  0  0  0  0  0
   -6.5387   -0.3921    0.0000 C   0  0  0  0  0  0  0  0  0  0  0  0
   -7.7523    0.4895    0.0000 C   0  0  0  0  0  0  0  0  0  0  0  0
   -9.1226   -0.1207    0.0000 C   0  0  0  0  0  0  0  0  0  0  0  0
   -9.2793   -1.6124    0.0000 C   0  0  0  0  0  0  0  0  0  0  0  0
   -8.0658   -2.4941    0.0000 C   0  0  0  0  0  0  0  0  0  0  0  0
   -6.6955   -1.8839    0.0000 C   0  0  0  0  0  0  0  0  0  0  0  0
   -3.9549   -0.6636    0.0000 C   0  0  0  0  0  0  0  0  0  0  0  0
   -2.5846   -0.0535    0.0000 C   0  0  0  0  0  0  0  0  0  0  0  0
    3.3601    2.8045    0.0000 C   0  0  0  0  0  0  0  0  0  0  0  0
    4.3638    3.9193    0.0000 C   0  0  0  0  0  0  0  0  0  0  0  0
    5.7341    3.3092    0.0000 C   0  0  0  0  0  0  0  0  0  0  0  0
    5.5774    1.8174    0.0000 C   0  0  0  0  0  0  0  0  0  0  0  0
    6.0410   -0.2329    0.0000 C   0  0  0  0  0  0  0  0  0  0  0  0
    6.5046   -1.6595    0.0000 C   0  0  0  0  0  0  0  0  0  0  0  0
  1  2  1  0
  2  3  1  0
  3  4  2  0
  4  5  1  0
  5  6  2  0
  6  7  1  0
  7  8  1  0
  8  9  2  0
  8 10  1  0
 10 11  1  0
 11 12  1  0
 12 13  1  0
 13 14  1  0
 14 15  1  0
 15 16  1  0
 16 17  1  0
 17 18  2  0
 18 19  1  0
 19 20  2  0
 20 21  1  0
 21 22  2  0
 16 23  1  0
 23 24  1  0
  7 25  1  0
 25 26  1  0
 26 27  1  0
 27 28  1  0
  6 29  1  0
 29 30  2  0
 30  3  1  0
 28  7  1  0
 24 13  1  0
 22 17  1  0
M  END
>  <ChemBL_ID>  (534) 
CHEMBL543808

>  <Compound_Key>  (534) 
19

>  <Ki>  (534) 
31.8

>  <database>  (534) 
CHEMBL

>  <Assay_ChEMBL_ID>  (534) 
CHEMBL805220

>  <Document_ChEMBL_ID>  (534) 
CHEMBL1127555

$$$$

     RDKit          2D

 28 31  0  0  0  0  0  0  0  0999 V2000
   -2.8190    2.5961    0.0000 O   0  0  0  0  0  0  0  0  0  0  0  0
   -3.3367    1.1883    0.0000 C   0  0  0  0  0  0  0  0  0  0  0  0
   -2.3763    0.0361    0.0000 O   0  0  0  0  0  0  0  0  0  0  0  0
   -0.8982    0.2917    0.0000 C   0  0  0  0  0  0  0  0  0  0  0  0
    0.0622   -0.8605    0.0000 C   0  0  0  0  0  0  0  0  0  0  0  0
    1.5403   -0.6049    0.0000 N   0  0  0  0  0  0  0  0  0  0  0  0
    2.5007   -1.7572    0.0000 C   0  0  0  0  0  0  0  0  0  0  0  0
    3.9787   -1.5015    0.0000 C   0  0  0  0  0  0  0  0  0  0  0  0
    4.4964   -0.0937    0.0000 C   0  0  0  0  0  0  0  0  0  0  0  0
    5.9744    0.1619    0.0000 C   0  0  0  0  0  0  0  0  0  0  0  0
    6.9348   -0.9903    0.0000 C   0  0  0  0  0  0  0  0  0  0  0  0
    8.4129   -0.7347    0.0000 C   0  0  0  0  0  0  0  0  0  0  0  0
    8.9305    0.6732    0.0000 C   0  0  0  0  0  0  0  0  0  0  0  0
    7.9701    1.8254    0.0000 C   0  0  0  0  0  0  0  0  0  0  0  0
    6.4921    1.5698    0.0000 C   0  0  0  0  0  0  0  0  0  0  0  0
    3.5360    1.0585    0.0000 C   0  0  0  0  0  0  0  0  0  0  0  0
    2.0579    0.8029    0.0000 C   0  0  0  0  0  0  0  0  0  0  0  0
   -4.8147    0.9327    0.0000 C   0  0  0  0  0  0  0  0  0  0  0  0
   -4.4060   -0.5106    0.0000 C   0  0  0  0  0  0  0  0  0  0  0  0
   -5.4515   -1.5862    0.0000 C   0  0  0  0  0  0  0  0  0  0  0  0
   -5.0428   -3.0294    0.0000 C   0  0  0  0  0  0  0  0  0  0  0  0
   -3.5886   -3.3971    0.0000 C   0  0  0  0  0  0  0  0  0  0  0  0
   -2.5430   -2.3215    0.0000 C   0  0  0  0  0  0  0  0  0  0  0  0
   -2.9518   -0.8782    0.0000 C   0  0  0  0  0  0  0  0  0  0  0  0
   -6.2073    0.3753    0.0000 C   0  0  0  0  0  0  0  0  0  0  0  0
   -7.1678    1.5275    0.0000 C   0  0  0  0  0  0  0  0  0  0  0  0
   -6.3687    2.7970    0.0000 C   0  0  0  0  0  0  0  0  0  0  0  0
   -4.9145    2.4293    0.0000 C   0  0  0  0  0  0  0  0  0  0  0  0
  1  2  2  0
  2  3  1  0
  3  4  1  0
  4  5  1  0
  5  6  1  0
  6  7  1  0
  7  8  1  0
  8  9  1  0
  9 10  1  0
 10 11  2  0
 11 12  1  0
 12 13  2  0
 13 14  1  0
 14 15  2  0
  9 16  1  0
 16 17  1  0
  2 18  1  0
 18 19  1  0
 19 20  2  0
 20 21  1  0
 21 22  2  0
 22 23  1  0
 23 24  2  0
 18 25  1  0
 25 26  1  0
 26 27  1  0
 27 28  1  0
 17  6  1  0
 28 18  1  0
 15 10  1  0
 24 19  1  0
M  END
>  <ChemBL_ID>  (535) 
CHEMBL544516

>  <Compound_Key>  (535) 
14

>  <Ki>  (535) 
52.3

>  <database>  (535) 
CHEMBL

>  <Assay_ChEMBL_ID>  (535) 
CHEMBL805220

>  <Document_ChEMBL_ID>  (535) 
CHEMBL1127555

$$$$

     RDKit          2D

 30 33  0  0  0  0  0  0  0  0999 V2000
   -4.1408    2.7375    0.0000 O   0  0  0  0  0  0  0  0  0  0  0  0
   -4.5539    1.2955    0.0000 C   0  0  0  0  0  0  0  0  0  0  0  0
   -3.5117    0.2167    0.0000 O   0  0  0  0  0  0  0  0  0  0  0  0
   -2.0563    0.5799    0.0000 C   0  0  0  0  0  0  0  0  0  0  0  0
   -1.0141   -0.4988    0.0000 C   0  0  0  0  0  0  0  0  0  0  0  0
    0.4413   -0.1356    0.0000 C   0  0  0  0  0  0  0  0  0  0  0  0
    1.4835   -1.2143    0.0000 C   0  0  0  0  0  0  0  0  0  0  0  0
    2.9389   -0.8511    0.0000 N   0  0  0  0  0  0  0  0  0  0  0  0
    3.9811   -1.9299    0.0000 C   0  0  0  0  0  0  0  0  0  0  0  0
    5.4365   -1.5666    0.0000 C   0  0  0  0  0  0  0  0  0  0  0  0
    5.8496   -0.1246    0.0000 C   0  0  0  0  0  0  0  0  0  0  0  0
    7.3050    0.2386    0.0000 C   0  0  0  0  0  0  0  0  0  0  0  0
    8.3472   -0.8402    0.0000 C   0  0  0  0  0  0  0  0  0  0  0  0
    9.8026   -0.4769    0.0000 C   0  0  0  0  0  0  0  0  0  0  0  0
   10.2157    0.9651    0.0000 C   0  0  0  0  0  0  0  0  0  0  0  0
    9.1734    2.0438    0.0000 C   0  0  0  0  0  0  0  0  0  0  0  0
    7.7181    1.6806    0.0000 C   0  0  0  0  0  0  0  0  0  0  0  0
    4.8074    0.9541    0.0000 C   0  0  0  0  0  0  0  0  0  0  0  0
    3.3520    0.5909    0.0000 C   0  0  0  0  0  0  0  0  0  0  0  0
   -6.0093    0.9322    0.0000 C   0  0  0  0  0  0  0  0  0  0  0  0
   -5.4959   -0.4772    0.0000 C   0  0  0  0  0  0  0  0  0  0  0  0
   -6.4598   -1.6265    0.0000 C   0  0  0  0  0  0  0  0  0  0  0  0
   -5.9464   -3.0359    0.0000 C   0  0  0  0  0  0  0  0  0  0  0  0
   -4.4692   -3.2960    0.0000 C   0  0  0  0  0  0  0  0  0  0  0  0
   -3.5053   -2.1467    0.0000 C   0  0  0  0  0  0  0  0  0  0  0  0
   -4.0186   -0.7373    0.0000 C   0  0  0  0  0  0  0  0  0  0  0  0
   -7.3573    0.2744    0.0000 C   0  0  0  0  0  0  0  0  0  0  0  0
   -8.3996    1.3531    0.0000 C   0  0  0  0  0  0  0  0  0  0  0  0
   -7.6957    2.6777    0.0000 C   0  0  0  0  0  0  0  0  0  0  0  0
   -6.2184    2.4176    0.0000 C   0  0  0  0  0  0  0  0  0  0  0  0
  1  2  2  0
  2  3  1  0
  3  4  1  0
  4  5  1  0
  5  6  1  0
  6  7  1  0
  7  8  1  0
  8  9  1  0
  9 10  1  0
 10 11  1  0
 11 12  1  0
 12 13  2  0
 13 14  1  0
 14 15  2  0
 15 16  1  0
 16 17  2  0
 11 18  1  0
 18 19  1  0
  2 20  1  0
 20 21  1  0
 21 22  2  0
 22 23  1  0
 23 24  2  0
 24 25  1  0
 25 26  2  0
 20 27  1  0
 27 28  1  0
 28 29  1  0
 29 30  1  0
 19  8  1  0
 30 20  1  0
 17 12  1  0
 26 21  1  0
M  END
>  <ChemBL_ID>  (536) 
CHEMBL542630

>  <Compound_Key>  (536) 
32

>  <Ki>  (536) 
0.69

>  <database>  (536) 
CHEMBL

>  <Assay_ChEMBL_ID>  (536) 
CHEMBL805220

>  <Document_ChEMBL_ID>  (536) 
CHEMBL1127555

$$$$

     RDKit          2D

 30 33  0  0  0  0  0  0  0  0999 V2000
    6.4571   -5.5272    0.0000 N   0  0  0  0  0  0  0  0  0  0  0  0
    5.9736   -4.1073    0.0000 C   0  0  0  0  0  0  0  0  0  0  0  0
    5.4901   -2.6873    0.0000 C   0  0  0  0  0  0  0  0  0  0  0  0
    4.0187   -2.3961    0.0000 C   0  0  0  0  0  0  0  0  0  0  0  0
    3.5352   -0.9761    0.0000 C   0  0  0  0  0  0  0  0  0  0  0  0
    4.5232    0.1526    0.0000 C   0  0  0  0  0  0  0  0  0  0  0  0
    4.0397    1.5725    0.0000 C   0  0  0  0  0  0  0  0  0  0  0  0
    2.6781    0.9433    0.0000 C   0  0  0  0  0  0  0  0  0  0  0  0
    2.5422   -0.5506    0.0000 O   0  0  0  0  0  0  0  0  0  0  0  0
    1.4523    1.8079    0.0000 O   0  0  0  0  0  0  0  0  0  0  0  0
    0.0907    1.1786    0.0000 C   0  0  0  0  0  0  0  0  0  0  0  0
   -1.1351    2.0432    0.0000 C   0  0  0  0  0  0  0  0  0  0  0  0
   -2.4967    1.4139    0.0000 N   0  0  0  0  0  0  0  0  0  0  0  0
   -3.7225    2.2785    0.0000 C   0  0  0  0  0  0  0  0  0  0  0  0
   -5.0841    1.6493    0.0000 C   0  0  0  0  0  0  0  0  0  0  0  0
   -5.2200    0.1554    0.0000 C   0  0  0  0  0  0  0  0  0  0  0  0
   -6.5816   -0.4738    0.0000 C   0  0  0  0  0  0  0  0  0  0  0  0
   -7.8074    0.3908    0.0000 C   0  0  0  0  0  0  0  0  0  0  0  0
   -9.1690   -0.2385    0.0000 C   0  0  0  0  0  0  0  0  0  0  0  0
   -9.3049   -1.7323    0.0000 C   0  0  0  0  0  0  0  0  0  0  0  0
   -8.0791   -2.5969    0.0000 C   0  0  0  0  0  0  0  0  0  0  0  0
   -6.7175   -1.9677    0.0000 C   0  0  0  0  0  0  0  0  0  0  0  0
   -3.9942   -0.7091    0.0000 C   0  0  0  0  0  0  0  0  0  0  0  0
   -2.6326   -0.0799    0.0000 C   0  0  0  0  0  0  0  0  0  0  0  0
    3.2715    2.8609    0.0000 C   0  0  0  0  0  0  0  0  0  0  0  0
    4.2595    3.9896    0.0000 C   0  0  0  0  0  0  0  0  0  0  0  0
    5.6383    3.3988    0.0000 C   0  0  0  0  0  0  0  0  0  0  0  0
    5.5024    1.9049    0.0000 C   0  0  0  0  0  0  0  0  0  0  0  0
    5.9946   -0.1387    0.0000 C   0  0  0  0  0  0  0  0  0  0  0  0
    6.4781   -1.5586    0.0000 C   0  0  0  0  0  0  0  0  0  0  0  0
  1  2  3  0
  2  3  1  0
  3  4  2  0
  4  5  1  0
  5  6  2  0
  6  7  1  0
  7  8  1  0
  8  9  2  0
  8 10  1  0
 10 11  1  0
 11 12  1  0
 12 13  1  0
 13 14  1  0
 14 15  1  0
 15 16  1  0
 16 17  1  0
 17 18  2  0
 18 19  1  0
 19 20  2  0
 20 21  1  0
 21 22  2  0
 16 23  1  0
 23 24  1  0
  7 25  1  0
 25 26  1  0
 26 27  1  0
 27 28  1  0
  6 29  1  0
 29 30  2  0
 30  3  1  0
 28  7  1  0
 24 13  1  0
 22 17  1  0
M  END
>  <ChemBL_ID>  (537) 
CHEMBL545678

>  <Compound_Key>  (537) 
17

>  <Ki>  (537) 
26.8

>  <database>  (537) 
CHEMBL

>  <Assay_ChEMBL_ID>  (537) 
CHEMBL805220

>  <Document_ChEMBL_ID>  (537) 
CHEMBL1127555

$$$$

     RDKit          2D

 31 34  0  0  0  0  0  0  0  0999 V2000
   -2.2827    3.2926    0.0000 O   0  0  0  0  0  0  0  0  0  0  0  0
   -2.9050    1.9278    0.0000 C   0  0  0  0  0  0  0  0  0  0  0  0
   -2.0342    0.7064    0.0000 O   0  0  0  0  0  0  0  0  0  0  0  0
   -0.5411    0.8499    0.0000 C   0  0  0  0  0  0  0  0  0  0  0  0
    0.3297   -0.3715    0.0000 C   0  0  0  0  0  0  0  0  0  0  0  0
    1.8228   -0.2281    0.0000 N   0  0  0  0  0  0  0  0  0  0  0  0
    2.6936   -1.4494    0.0000 C   0  0  0  0  0  0  0  0  0  0  0  0
    4.1867   -1.3060    0.0000 C   0  0  0  0  0  0  0  0  0  0  0  0
    4.8090    0.0588    0.0000 N   0  0  0  0  0  0  0  0  0  0  0  0
    6.3022    0.2022    0.0000 C   0  0  0  0  0  0  0  0  0  0  0  0
    7.1729   -1.0192    0.0000 C   0  0  0  0  0  0  0  0  0  0  0  0
    8.6661   -0.8757    0.0000 C   0  0  0  0  0  0  0  0  0  0  0  0
    9.2884    0.4891    0.0000 C   0  0  0  0  0  0  0  0  0  0  0  0
    8.4176    1.7104    0.0000 C   0  0  0  0  0  0  0  0  0  0  0  0
    6.9245    1.5670    0.0000 C   0  0  0  0  0  0  0  0  0  0  0  0
    3.9383    1.2802    0.0000 C   0  0  0  0  0  0  0  0  0  0  0  0
    2.4451    1.1367    0.0000 C   0  0  0  0  0  0  0  0  0  0  0  0
   -4.3981    1.7844    0.0000 C   0  0  0  0  0  0  0  0  0  0  0  0
   -4.0994    0.3144    0.0000 C   0  0  0  0  0  0  0  0  0  0  0  0
   -5.2231   -0.6792    0.0000 C   0  0  0  0  0  0  0  0  0  0  0  0
   -4.9244   -2.1492    0.0000 C   0  0  0  0  0  0  0  0  0  0  0  0
   -3.5020   -2.6255    0.0000 C   0  0  0  0  0  0  0  0  0  0  0  0
   -3.2033   -4.0954    0.0000 N   0  0  0  0  0  4  0  0  0  0  0  0
   -1.7809   -4.5717    0.0000 O   0  0  0  0  0  0  0  0  0  0  0  0
   -4.3269   -5.0891    0.0000 O   0  0  0  0  0  1  0  0  0  0  0  0
   -2.3783   -1.6318    0.0000 C   0  0  0  0  0  0  0  0  0  0  0  0
   -2.6771   -0.1618    0.0000 C   0  0  0  0  0  0  0  0  0  0  0  0
   -5.8288    1.3337    0.0000 C   0  0  0  0  0  0  0  0  0  0  0  0
   -6.6996    2.5550    0.0000 C   0  0  0  0  0  0  0  0  0  0  0  0
   -5.8071    3.7606    0.0000 C   0  0  0  0  0  0  0  0  0  0  0  0
   -4.3847    3.2843    0.0000 C   0  0  0  0  0  0  0  0  0  0  0  0
  1  2  2  0
  2  3  1  0
  3  4  1  0
  4  5  1  0
  5  6  1  0
  6  7  1  0
  7  8  1  0
  8  9  1  0
  9 10  1  0
 10 11  2  0
 11 12  1  0
 12 13  2  0
 13 14  1  0
 14 15  2  0
  9 16  1  0
 16 17  1  0
  2 18  1  0
 18 19  1  0
 19 20  2  0
 20 21  1  0
 21 22  2  0
 22 23  1  0
 23 24  2  0
 23 25  1  0
 22 26  1  0
 26 27  2  0
 18 28  1  0
 28 29  1  0
 29 30  1  0
 30 31  1  0
 17  6  1  0
 31 18  1  0
 15 10  1  0
 27 19  1  0
M  CHG  2  23   1  25  -1
M  END
>  <ChemBL_ID>  (538) 
CHEMBL555580

>  <Compound_Key>  (538) 
21

>  <Ki>  (538) 
30.3

>  <database>  (538) 
CHEMBL

>  <Assay_ChEMBL_ID>  (538) 
CHEMBL805220

>  <Document_ChEMBL_ID>  (538) 
CHEMBL1127555

$$$$

     RDKit          2D

 29 32  0  0  0  0  0  0  0  0999 V2000
   -2.6428    2.8268    0.0000 O   0  0  0  0  0  0  0  0  0  0  0  0
   -3.1938    1.4316    0.0000 C   0  0  0  0  0  0  0  0  0  0  0  0
   -2.2611    0.2569    0.0000 O   0  0  0  0  0  0  0  0  0  0  0  0
   -0.7774    0.4772    0.0000 C   0  0  0  0  0  0  0  0  0  0  0  0
    0.1553   -0.6975    0.0000 C   0  0  0  0  0  0  0  0  0  0  0  0
    1.6390   -0.4772    0.0000 N   0  0  0  0  0  0  0  0  0  0  0  0
    2.5717   -1.6520    0.0000 C   0  0  0  0  0  0  0  0  0  0  0  0
    4.0554   -1.4316    0.0000 C   0  0  0  0  0  0  0  0  0  0  0  0
    4.6065   -0.0365    0.0000 N   0  0  0  0  0  0  0  0  0  0  0  0
    6.0902    0.1839    0.0000 C   0  0  0  0  0  0  0  0  0  0  0  0
    7.0229   -0.9909    0.0000 C   0  0  0  0  0  0  0  0  0  0  0  0
    8.5066   -0.7705    0.0000 C   0  0  0  0  0  0  0  0  0  0  0  0
    9.0576    0.6246    0.0000 C   0  0  0  0  0  0  0  0  0  0  0  0
    8.1249    1.7994    0.0000 C   0  0  0  0  0  0  0  0  0  0  0  0
    6.6412    1.5790    0.0000 C   0  0  0  0  0  0  0  0  0  0  0  0
    3.6738    1.1383    0.0000 C   0  0  0  0  0  0  0  0  0  0  0  0
    2.1900    0.9179    0.0000 C   0  0  0  0  0  0  0  0  0  0  0  0
   -4.6776    1.2113    0.0000 C   0  0  0  0  0  0  0  0  0  0  0  0
   -4.3033   -0.2413    0.0000 C   0  0  0  0  0  0  0  0  0  0  0  0
   -5.3742   -1.2917    0.0000 C   0  0  0  0  0  0  0  0  0  0  0  0
   -4.9999   -2.7442    0.0000 C   0  0  0  0  0  0  0  0  0  0  0  0
   -3.5549   -3.1464    0.0000 C   0  0  0  0  0  0  0  0  0  0  0  0
   -3.1806   -4.5990    0.0000 Cl  0  0  0  0  0  0  0  0  0  0  0  0
   -2.4840   -2.0960    0.0000 C   0  0  0  0  0  0  0  0  0  0  0  0
   -2.8583   -0.6435    0.0000 C   0  0  0  0  0  0  0  0  0  0  0  0
   -6.0831    0.6873    0.0000 C   0  0  0  0  0  0  0  0  0  0  0  0
   -7.0158    1.8620    0.0000 C   0  0  0  0  0  0  0  0  0  0  0  0
   -6.1867    3.1121    0.0000 C   0  0  0  0  0  0  0  0  0  0  0  0
   -4.7416    2.7099    0.0000 C   0  0  0  0  0  0  0  0  0  0  0  0
  1  2  2  0
  2  3  1  0
  3  4  1  0
  4  5  1  0
  5  6  1  0
  6  7  1  0
  7  8  1  0
  8  9  1  0
  9 10  1  0
 10 11  2  0
 11 12  1  0
 12 13  2  0
 13 14  1  0
 14 15  2  0
  9 16  1  0
 16 17  1  0
  2 18  1  0
 18 19  1  0
 19 20  2  0
 20 21  1  0
 21 22  2  0
 22 23  1  0
 22 24  1  0
 24 25  2  0
 18 26  1  0
 26 27  1  0
 27 28  1  0
 28 29  1  0
 17  6  1  0
 29 18  1  0
 15 10  1  0
 25 19  1  0
M  END
>  <ChemBL_ID>  (539) 
CHEMBL539245

>  <Compound_Key>  (539) 
23

>  <Ki>  (539) 
763.0

>  <database>  (539) 
CHEMBL

>  <Assay_ChEMBL_ID>  (539) 
CHEMBL805220

>  <Document_ChEMBL_ID>  (539) 
CHEMBL1127555

$$$$

     RDKit          2D

 29 32  0  0  0  0  0  0  0  0999 V2000
   -2.6428    2.8268    0.0000 O   0  0  0  0  0  0  0  0  0  0  0  0
   -3.1938    1.4316    0.0000 C   0  0  0  0  0  0  0  0  0  0  0  0
   -2.2611    0.2569    0.0000 O   0  0  0  0  0  0  0  0  0  0  0  0
   -0.7774    0.4772    0.0000 C   0  0  0  0  0  0  0  0  0  0  0  0
    0.1553   -0.6975    0.0000 C   0  0  0  0  0  0  0  0  0  0  0  0
    1.6390   -0.4772    0.0000 N   0  0  0  0  0  0  0  0  0  0  0  0
    2.5717   -1.6520    0.0000 C   0  0  0  0  0  0  0  0  0  0  0  0
    4.0554   -1.4316    0.0000 C   0  0  0  0  0  0  0  0  0  0  0  0
    4.6065   -0.0365    0.0000 N   0  0  0  0  0  0  0  0  0  0  0  0
    6.0902    0.1839    0.0000 C   0  0  0  0  0  0  0  0  0  0  0  0
    7.0229   -0.9909    0.0000 C   0  0  0  0  0  0  0  0  0  0  0  0
    8.5066   -0.7705    0.0000 C   0  0  0  0  0  0  0  0  0  0  0  0
    9.0576    0.6246    0.0000 C   0  0  0  0  0  0  0  0  0  0  0  0
    8.1249    1.7994    0.0000 C   0  0  0  0  0  0  0  0  0  0  0  0
    6.6412    1.5790    0.0000 C   0  0  0  0  0  0  0  0  0  0  0  0
    3.6738    1.1383    0.0000 C   0  0  0  0  0  0  0  0  0  0  0  0
    2.1900    0.9179    0.0000 C   0  0  0  0  0  0  0  0  0  0  0  0
   -4.6776    1.2113    0.0000 C   0  0  0  0  0  0  0  0  0  0  0  0
   -4.3033   -0.2413    0.0000 C   0  0  0  0  0  0  0  0  0  0  0  0
   -5.3742   -1.2917    0.0000 C   0  0  0  0  0  0  0  0  0  0  0  0
   -4.9999   -2.7442    0.0000 C   0  0  0  0  0  0  0  0  0  0  0  0
   -3.5549   -3.1464    0.0000 C   0  0  0  0  0  0  0  0  0  0  0  0
   -3.1806   -4.5990    0.0000 I   0  0  0  0  0  0  0  0  0  0  0  0
   -2.4840   -2.0960    0.0000 C   0  0  0  0  0  0  0  0  0  0  0  0
   -2.8583   -0.6435    0.0000 C   0  0  0  0  0  0  0  0  0  0  0  0
   -6.0831    0.6873    0.0000 C   0  0  0  0  0  0  0  0  0  0  0  0
   -7.0158    1.8620    0.0000 C   0  0  0  0  0  0  0  0  0  0  0  0
   -6.1867    3.1121    0.0000 C   0  0  0  0  0  0  0  0  0  0  0  0
   -4.7416    2.7099    0.0000 C   0  0  0  0  0  0  0  0  0  0  0  0
  1  2  2  0
  2  3  1  0
  3  4  1  0
  4  5  1  0
  5  6  1  0
  6  7  1  0
  7  8  1  0
  8  9  1  0
  9 10  1  0
 10 11  2  0
 11 12  1  0
 12 13  2  0
 13 14  1  0
 14 15  2  0
  9 16  1  0
 16 17  1  0
  2 18  1  0
 18 19  1  0
 19 20  2  0
 20 21  1  0
 21 22  2  0
 22 23  1  0
 22 24  1  0
 24 25  2  0
 18 26  1  0
 26 27  1  0
 27 28  1  0
 28 29  1  0
 17  6  1  0
 29 18  1  0
 15 10  1  0
 25 19  1  0
M  END
>  <ChemBL_ID>  (540) 
CHEMBL558028

>  <Compound_Key>  (540) 
22

>  <Ki>  (540) 
293.0

>  <database>  (540) 
CHEMBL

>  <Assay_ChEMBL_ID>  (540) 
CHEMBL805220

>  <Document_ChEMBL_ID>  (540) 
CHEMBL1127555

$$$$

     RDKit          2D

 31 34  0  0  0  0  0  0  0  0999 V2000
   -2.2827    3.2926    0.0000 O   0  0  0  0  0  0  0  0  0  0  0  0
   -2.9050    1.9278    0.0000 C   0  0  0  0  0  0  0  0  0  0  0  0
   -2.0342    0.7064    0.0000 O   0  0  0  0  0  0  0  0  0  0  0  0
   -0.5411    0.8499    0.0000 C   0  0  0  0  0  0  0  0  0  0  0  0
    0.3297   -0.3715    0.0000 C   0  0  0  0  0  0  0  0  0  0  0  0
    1.8228   -0.2281    0.0000 N   0  0  0  0  0  0  0  0  0  0  0  0
    2.6936   -1.4494    0.0000 C   0  0  0  0  0  0  0  0  0  0  0  0
    4.1867   -1.3060    0.0000 C   0  0  0  0  0  0  0  0  0  0  0  0
    4.8090    0.0588    0.0000 C   0  0  0  0  0  0  0  0  0  0  0  0
    6.3022    0.2022    0.0000 C   0  0  0  0  0  0  0  0  0  0  0  0
    7.1729   -1.0192    0.0000 C   0  0  0  0  0  0  0  0  0  0  0  0
    8.6661   -0.8757    0.0000 C   0  0  0  0  0  0  0  0  0  0  0  0
    9.2884    0.4891    0.0000 C   0  0  0  0  0  0  0  0  0  0  0  0
    8.4176    1.7104    0.0000 C   0  0  0  0  0  0  0  0  0  0  0  0
    6.9245    1.5670    0.0000 C   0  0  0  0  0  0  0  0  0  0  0  0
    3.9383    1.2802    0.0000 C   0  0  0  0  0  0  0  0  0  0  0  0
    2.4451    1.1367    0.0000 C   0  0  0  0  0  0  0  0  0  0  0  0
   -4.3981    1.7844    0.0000 C   0  0  0  0  0  0  0  0  0  0  0  0
   -4.0994    0.3144    0.0000 C   0  0  0  0  0  0  0  0  0  0  0  0
   -5.2231   -0.6792    0.0000 C   0  0  0  0  0  0  0  0  0  0  0  0
   -4.9244   -2.1492    0.0000 C   0  0  0  0  0  0  0  0  0  0  0  0
   -3.5020   -2.6255    0.0000 C   0  0  0  0  0  0  0  0  0  0  0  0
   -3.2033   -4.0954    0.0000 N   0  0  0  0  0  4  0  0  0  0  0  0
   -1.7809   -4.5717    0.0000 O   0  0  0  0  0  0  0  0  0  0  0  0
   -4.3269   -5.0891    0.0000 O   0  0  0  0  0  1  0  0  0  0  0  0
   -2.3783   -1.6318    0.0000 C   0  0  0  0  0  0  0  0  0  0  0  0
   -2.6771   -0.1618    0.0000 C   0  0  0  0  0  0  0  0  0  0  0  0
   -5.8288    1.3337    0.0000 C   0  0  0  0  0  0  0  0  0  0  0  0
   -6.6996    2.5550    0.0000 C   0  0  0  0  0  0  0  0  0  0  0  0
   -5.8071    3.7606    0.0000 C   0  0  0  0  0  0  0  0  0  0  0  0
   -4.3847    3.2843    0.0000 C   0  0  0  0  0  0  0  0  0  0  0  0
  1  2  2  0
  2  3  1  0
  3  4  1  0
  4  5  1  0
  5  6  1  0
  6  7  1  0
  7  8  1  0
  8  9  1  0
  9 10  1  0
 10 11  2  0
 11 12  1  0
 12 13  2  0
 13 14  1  0
 14 15  2  0
  9 16  1  0
 16 17  1  0
  2 18  1  0
 18 19  1  0
 19 20  2  0
 20 21  1  0
 21 22  2  0
 22 23  1  0
 23 24  2  0
 23 25  1  0
 22 26  1  0
 26 27  2  0
 18 28  1  0
 28 29  1  0
 29 30  1  0
 30 31  1  0
 17  6  1  0
 31 18  1  0
 15 10  1  0
 27 19  1  0
M  CHG  2  23   1  25  -1
M  END
>  <ChemBL_ID>  (541) 
CHEMBL541284

>  <Compound_Key>  (541) 
15

>  <Ki>  (541) 
3.93

>  <database>  (541) 
CHEMBL

>  <Assay_ChEMBL_ID>  (541) 
CHEMBL805220

>  <Document_ChEMBL_ID>  (541) 
CHEMBL1127555

$$$$

     RDKit          2D

 32 35  0  0  0  0  0  0  0  0999 V2000
   -4.4860   -3.0963    0.0000 O   0  0  0  0  0  0  0  0  0  0  0  0
   -4.2667   -1.6125    0.0000 C   0  0  0  0  0  0  0  0  0  0  0  0
   -2.8719   -1.0605    0.0000 O   0  0  0  0  0  0  0  0  0  0  0  0
   -1.6965   -1.9924    0.0000 C   0  0  0  0  0  0  0  0  0  0  0  0
   -0.3018   -1.4405    0.0000 C   0  0  0  0  0  0  0  0  0  0  0  0
    0.8736   -2.3724    0.0000 C   0  0  0  0  0  0  0  0  0  0  0  0
    2.2684   -1.8204    0.0000 N   0  0  0  0  0  0  0  0  0  0  0  0
    3.4438   -2.7523    0.0000 C   0  0  0  0  0  0  0  0  0  0  0  0
    4.8385   -2.2004    0.0000 C   0  0  0  0  0  0  0  0  0  0  0  0
    5.0579   -0.7165    0.0000 C   0  0  0  0  0  0  0  0  0  0  0  0
    6.4527   -0.1646    0.0000 C   0  0  0  0  0  0  0  0  0  0  0  0
    7.6280   -1.0965    0.0000 C   0  0  0  0  0  0  0  0  0  0  0  0
    9.0228   -0.5445    0.0000 C   0  0  0  0  0  0  0  0  0  0  0  0
    9.2422    0.9394    0.0000 C   0  0  0  0  0  0  0  0  0  0  0  0
    8.0668    1.8713    0.0000 C   0  0  0  0  0  0  0  0  0  0  0  0
    6.6720    1.3193    0.0000 C   0  0  0  0  0  0  0  0  0  0  0  0
    3.8825    0.2154    0.0000 C   0  0  0  0  0  0  0  0  0  0  0  0
    2.4878   -0.3366    0.0000 C   0  0  0  0  0  0  0  0  0  0  0  0
   -5.4420   -0.6806    0.0000 C   0  0  0  0  0  0  0  0  0  0  0  0
   -4.3924    0.3910    0.0000 C   0  0  0  0  0  0  0  0  0  0  0  0
   -2.9396    0.0177    0.0000 C   0  0  0  0  0  0  0  0  0  0  0  0
   -1.8899    1.0892    0.0000 C   0  0  0  0  0  0  0  0  0  0  0  0
   -2.2930    2.5341    0.0000 C   0  0  0  0  0  0  0  0  0  0  0  0
   -1.2434    3.6056    0.0000 N   0  0  0  0  0  4  0  0  0  0  0  0
   -1.6465    5.0504    0.0000 O   0  0  0  0  0  0  0  0  0  0  0  0
    0.2095    3.2323    0.0000 O   0  0  0  0  0  1  0  0  0  0  0  0
   -3.7458    2.9073    0.0000 C   0  0  0  0  0  0  0  0  0  0  0  0
   -4.7955    1.8358    0.0000 C   0  0  0  0  0  0  0  0  0  0  0  0
   -6.3980    0.4754    0.0000 C   0  0  0  0  0  0  0  0  0  0  0  0
   -7.7927   -0.0766    0.0000 C   0  0  0  0  0  0  0  0  0  0  0  0
   -7.6988   -1.5736    0.0000 C   0  0  0  0  0  0  0  0  0  0  0  0
   -6.2460   -1.9469    0.0000 C   0  0  0  0  0  0  0  0  0  0  0  0
  1  2  2  0
  2  3  1  0
  3  4  1  0
  4  5  1  0
  5  6  1  0
  6  7  1  0
  7  8  1  0
  8  9  1  0
  9 10  1  0
 10 11  1  0
 11 12  2  0
 12 13  1  0
 13 14  2  0
 14 15  1  0
 15 16  2  0
 10 17  1  0
 17 18  1  0
  2 19  1  0
 19 20  1  0
 20 21  2  0
 21 22  1  0
 22 23  2  0
 23 24  1  0
 24 25  2  0
 24 26  1  0
 23 27  1  0
 27 28  2  0
 19 29  1  0
 29 30  1  0
 30 31  1  0
 31 32  1  0
 18  7  1  0
 32 19  1  0
 16 11  1  0
 28 20  1  0
M  CHG  2  24   1  26  -1
M  END
>  <ChemBL_ID>  (542) 
CHEMBL542131

>  <Compound_Key>  (542) 
25

>  <Ki>  (542) 
0.88

>  <database>  (542) 
CHEMBL

>  <Assay_ChEMBL_ID>  (542) 
CHEMBL805220

>  <Document_ChEMBL_ID>  (542) 
CHEMBL1127555

$$$$

     RDKit          2D

 28 31  0  0  0  0  0  0  0  0999 V2000
   -2.8190    2.5961    0.0000 O   0  0  0  0  0  0  0  0  0  0  0  0
   -3.3367    1.1883    0.0000 C   0  0  0  0  0  0  0  0  0  0  0  0
   -2.3763    0.0361    0.0000 O   0  0  0  0  0  0  0  0  0  0  0  0
   -0.8982    0.2917    0.0000 C   0  0  0  0  0  0  0  0  0  0  0  0
    0.0622   -0.8605    0.0000 C   0  0  0  0  0  0  0  0  0  0  0  0
    1.5403   -0.6049    0.0000 N   0  0  0  0  0  0  0  0  0  0  0  0
    2.5007   -1.7572    0.0000 C   0  0  0  0  0  0  0  0  0  0  0  0
    3.9787   -1.5015    0.0000 C   0  0  0  0  0  0  0  0  0  0  0  0
    4.4964   -0.0937    0.0000 N   0  0  0  0  0  0  0  0  0  0  0  0
    5.9744    0.1619    0.0000 C   0  0  0  0  0  0  0  0  0  0  0  0
    6.9348   -0.9903    0.0000 C   0  0  0  0  0  0  0  0  0  0  0  0
    8.4129   -0.7347    0.0000 C   0  0  0  0  0  0  0  0  0  0  0  0
    8.9305    0.6732    0.0000 C   0  0  0  0  0  0  0  0  0  0  0  0
    7.9701    1.8254    0.0000 C   0  0  0  0  0  0  0  0  0  0  0  0
    6.4921    1.5698    0.0000 C   0  0  0  0  0  0  0  0  0  0  0  0
    3.5360    1.0585    0.0000 C   0  0  0  0  0  0  0  0  0  0  0  0
    2.0579    0.8029    0.0000 C   0  0  0  0  0  0  0  0  0  0  0  0
   -4.8147    0.9327    0.0000 C   0  0  0  0  0  0  0  0  0  0  0  0
   -4.4060   -0.5106    0.0000 C   0  0  0  0  0  0  0  0  0  0  0  0
   -5.4515   -1.5862    0.0000 C   0  0  0  0  0  0  0  0  0  0  0  0
   -5.0428   -3.0294    0.0000 C   0  0  0  0  0  0  0  0  0  0  0  0
   -3.5886   -3.3971    0.0000 C   0  0  0  0  0  0  0  0  0  0  0  0
   -2.5430   -2.3215    0.0000 C   0  0  0  0  0  0  0  0  0  0  0  0
   -2.9518   -0.8782    0.0000 C   0  0  0  0  0  0  0  0  0  0  0  0
   -6.2073    0.3753    0.0000 C   0  0  0  0  0  0  0  0  0  0  0  0
   -7.1678    1.5275    0.0000 C   0  0  0  0  0  0  0  0  0  0  0  0
   -6.3687    2.7970    0.0000 C   0  0  0  0  0  0  0  0  0  0  0  0
   -4.9145    2.4293    0.0000 C   0  0  0  0  0  0  0  0  0  0  0  0
  1  2  2  0
  2  3  1  0
  3  4  1  0
  4  5  1  0
  5  6  1  0
  6  7  1  0
  7  8  1  0
  8  9  1  0
  9 10  1  0
 10 11  2  0
 11 12  1  0
 12 13  2  0
 13 14  1  0
 14 15  2  0
  9 16  1  0
 16 17  1  0
  2 18  1  0
 18 19  1  0
 19 20  2  0
 20 21  1  0
 21 22  2  0
 22 23  1  0
 23 24  2  0
 18 25  1  0
 25 26  1  0
 26 27  1  0
 27 28  1  0
 17  6  1  0
 28 18  1  0
 15 10  1  0
 24 19  1  0
M  END
>  <ChemBL_ID>  (543) 
CHEMBL537989

>  <Compound_Key>  (543) 
20

>  <Ki>  (543) 
696.0

>  <database>  (543) 
CHEMBL

>  <Assay_ChEMBL_ID>  (543) 
CHEMBL805220

>  <Document_ChEMBL_ID>  (543) 
CHEMBL1127555

$$$$

     RDKit          2D

 30 33  0  0  0  0  0  0  0  0999 V2000
   -4.5646   -2.7703    0.0000 O   0  0  0  0  0  0  0  0  0  0  0  0
   -4.3290   -1.2890    0.0000 C   0  0  0  0  0  0  0  0  0  0  0  0
   -2.9282   -0.7523    0.0000 O   0  0  0  0  0  0  0  0  0  0  0  0
   -1.7631   -1.6971    0.0000 C   0  0  0  0  0  0  0  0  0  0  0  0
   -0.3624   -1.1605    0.0000 C   0  0  0  0  0  0  0  0  0  0  0  0
    0.8027   -2.1052    0.0000 C   0  0  0  0  0  0  0  0  0  0  0  0
    2.2034   -1.5686    0.0000 N   0  0  0  0  0  0  0  0  0  0  0  0
    3.3685   -2.5134    0.0000 C   0  0  0  0  0  0  0  0  0  0  0  0
    4.7692   -1.9767    0.0000 C   0  0  0  0  0  0  0  0  0  0  0  0
    5.0049   -0.4954    0.0000 C   0  0  0  0  0  0  0  0  0  0  0  0
    6.4056    0.0413    0.0000 C   0  0  0  0  0  0  0  0  0  0  0  0
    7.5707   -0.9035    0.0000 C   0  0  0  0  0  0  0  0  0  0  0  0
    8.9714   -0.3669    0.0000 C   0  0  0  0  0  0  0  0  0  0  0  0
    9.2070    1.1145    0.0000 C   0  0  0  0  0  0  0  0  0  0  0  0
    8.0420    2.0593    0.0000 C   0  0  0  0  0  0  0  0  0  0  0  0
    6.6412    1.5226    0.0000 C   0  0  0  0  0  0  0  0  0  0  0  0
    3.8398    0.4494    0.0000 C   0  0  0  0  0  0  0  0  0  0  0  0
    2.4390   -0.0872    0.0000 C   0  0  0  0  0  0  0  0  0  0  0  0
   -5.4940   -0.3442    0.0000 C   0  0  0  0  0  0  0  0  0  0  0  0
   -4.4327    0.7157    0.0000 C   0  0  0  0  0  0  0  0  0  0  0  0
   -2.9841    0.3265    0.0000 C   0  0  0  0  0  0  0  0  0  0  0  0
   -1.9227    1.3865    0.0000 C   0  0  0  0  0  0  0  0  0  0  0  0
   -2.3100    2.8357    0.0000 C   0  0  0  0  0  0  0  0  0  0  0  0
   -1.2486    3.8956    0.0000 Cl  0  0  0  0  0  0  0  0  0  0  0  0
   -3.7586    3.2248    0.0000 C   0  0  0  0  0  0  0  0  0  0  0  0
   -4.8200    2.1649    0.0000 C   0  0  0  0  0  0  0  0  0  0  0  0
   -6.4373    0.8221    0.0000 C   0  0  0  0  0  0  0  0  0  0  0  0
   -7.8380    0.2855    0.0000 C   0  0  0  0  0  0  0  0  0  0  0  0
   -7.7605   -1.2125    0.0000 C   0  0  0  0  0  0  0  0  0  0  0  0
   -6.3118   -1.6017    0.0000 C   0  0  0  0  0  0  0  0  0  0  0  0
  1  2  2  0
  2  3  1  0
  3  4  1  0
  4  5  1  0
  5  6  1  0
  6  7  1  0
  7  8  1  0
  8  9  1  0
  9 10  1  0
 10 11  1  0
 11 12  2  0
 12 13  1  0
 13 14  2  0
 14 15  1  0
 15 16  2  0
 10 17  1  0
 17 18  1  0
  2 19  1  0
 19 20  1  0
 20 21  2  0
 21 22  1  0
 22 23  2  0
 23 24  1  0
 23 25  1  0
 25 26  2  0
 19 27  1  0
 27 28  1  0
 28 29  1  0
 29 30  1  0
 18  7  1  0
 30 19  1  0
 16 11  1  0
 26 20  1  0
M  END
>  <ChemBL_ID>  (544) 
CHEMBL545216

>  <Compound_Key>  (544) 
26

>  <Ki>  (544) 
4.41

>  <database>  (544) 
CHEMBL

>  <Assay_ChEMBL_ID>  (544) 
CHEMBL805220

>  <Document_ChEMBL_ID>  (544) 
CHEMBL1127555

$$$$

     RDKit          2D

 29 32  0  0  0  0  0  0  0  0999 V2000
   -2.6428    2.8268    0.0000 O   0  0  0  0  0  0  0  0  0  0  0  0
   -3.1938    1.4316    0.0000 C   0  0  0  0  0  0  0  0  0  0  0  0
   -2.2611    0.2569    0.0000 O   0  0  0  0  0  0  0  0  0  0  0  0
   -0.7774    0.4772    0.0000 C   0  0  0  0  0  0  0  0  0  0  0  0
    0.1553   -0.6975    0.0000 C   0  0  0  0  0  0  0  0  0  0  0  0
    1.6390   -0.4772    0.0000 N   0  0  0  0  0  0  0  0  0  0  0  0
    2.5717   -1.6520    0.0000 C   0  0  0  0  0  0  0  0  0  0  0  0
    4.0554   -1.4316    0.0000 C   0  0  0  0  0  0  0  0  0  0  0  0
    4.6065   -0.0365    0.0000 C   0  0  0  0  0  0  0  0  0  0  0  0
    6.0902    0.1839    0.0000 C   0  0  0  0  0  0  0  0  0  0  0  0
    7.0229   -0.9909    0.0000 C   0  0  0  0  0  0  0  0  0  0  0  0
    8.5066   -0.7705    0.0000 C   0  0  0  0  0  0  0  0  0  0  0  0
    9.0576    0.6246    0.0000 C   0  0  0  0  0  0  0  0  0  0  0  0
    8.1249    1.7994    0.0000 C   0  0  0  0  0  0  0  0  0  0  0  0
    6.6412    1.5790    0.0000 C   0  0  0  0  0  0  0  0  0  0  0  0
    3.6738    1.1383    0.0000 C   0  0  0  0  0  0  0  0  0  0  0  0
    2.1900    0.9179    0.0000 C   0  0  0  0  0  0  0  0  0  0  0  0
   -4.6776    1.2113    0.0000 C   0  0  0  0  0  0  0  0  0  0  0  0
   -4.3033   -0.2413    0.0000 C   0  0  0  0  0  0  0  0  0  0  0  0
   -5.3742   -1.2917    0.0000 C   0  0  0  0  0  0  0  0  0  0  0  0
   -4.9999   -2.7442    0.0000 C   0  0  0  0  0  0  0  0  0  0  0  0
   -3.5549   -3.1464    0.0000 C   0  0  0  0  0  0  0  0  0  0  0  0
   -3.1806   -4.5990    0.0000 I   0  0  0  0  0  0  0  0  0  0  0  0
   -2.4840   -2.0960    0.0000 C   0  0  0  0  0  0  0  0  0  0  0  0
   -2.8583   -0.6435    0.0000 C   0  0  0  0  0  0  0  0  0  0  0  0
   -6.0831    0.6873    0.0000 C   0  0  0  0  0  0  0  0  0  0  0  0
   -7.0158    1.8620    0.0000 C   0  0  0  0  0  0  0  0  0  0  0  0
   -6.1867    3.1121    0.0000 C   0  0  0  0  0  0  0  0  0  0  0  0
   -4.7416    2.7099    0.0000 C   0  0  0  0  0  0  0  0  0  0  0  0
  1  2  2  0
  2  3  1  0
  3  4  1  0
  4  5  1  0
  5  6  1  0
  6  7  1  0
  7  8  1  0
  8  9  1  0
  9 10  1  0
 10 11  2  0
 11 12  1  0
 12 13  2  0
 13 14  1  0
 14 15  2  0
  9 16  1  0
 16 17  1  0
  2 18  1  0
 18 19  1  0
 19 20  2  0
 20 21  1  0
 21 22  2  0
 22 23  1  0
 22 24  1  0
 24 25  2  0
 18 26  1  0
 26 27  1  0
 27 28  1  0
 28 29  1  0
 17  6  1  0
 29 18  1  0
 15 10  1  0
 25 19  1  0
M  END
>  <ChemBL_ID>  (545) 
CHEMBL554628

>  <Compound_Key>  (545) 
16

>  <Ki>  (545) 
52.0

>  <database>  (545) 
CHEMBL

>  <Assay_ChEMBL_ID>  (545) 
CHEMBL805220

>  <Document_ChEMBL_ID>  (545) 
CHEMBL1127555

$$$$

     RDKit          2D

 29 32  0  0  0  0  0  0  0  0999 V2000
   -4.6253   -2.6049    0.0000 O   0  0  0  0  0  0  0  0  0  0  0  0
   -4.3797   -1.1252    0.0000 C   0  0  0  0  0  0  0  0  0  0  0  0
   -2.9754   -0.5980    0.0000 O   0  0  0  0  0  0  0  0  0  0  0  0
   -1.8167   -1.5506    0.0000 C   0  0  0  0  0  0  0  0  0  0  0  0
   -0.4124   -1.0234    0.0000 C   0  0  0  0  0  0  0  0  0  0  0  0
    0.7463   -1.9760    0.0000 C   0  0  0  0  0  0  0  0  0  0  0  0
    2.1506   -1.4488    0.0000 N   0  0  0  0  0  0  0  0  0  0  0  0
    3.3093   -2.4014    0.0000 C   0  0  0  0  0  0  0  0  0  0  0  0
    4.7137   -1.8742    0.0000 C   0  0  0  0  0  0  0  0  0  0  0  0
    4.9593   -0.3945    0.0000 C   0  0  0  0  0  0  0  0  0  0  0  0
    6.3636    0.1327    0.0000 C   0  0  0  0  0  0  0  0  0  0  0  0
    7.5223   -0.8199    0.0000 C   0  0  0  0  0  0  0  0  0  0  0  0
    8.9266   -0.2927    0.0000 C   0  0  0  0  0  0  0  0  0  0  0  0
    9.1722    1.1871    0.0000 C   0  0  0  0  0  0  0  0  0  0  0  0
    8.0135    2.1396    0.0000 C   0  0  0  0  0  0  0  0  0  0  0  0
    6.6092    1.6125    0.0000 C   0  0  0  0  0  0  0  0  0  0  0  0
    3.8006    0.5581    0.0000 C   0  0  0  0  0  0  0  0  0  0  0  0
    2.3963    0.0310    0.0000 C   0  0  0  0  0  0  0  0  0  0  0  0
   -5.5384   -0.1726    0.0000 C   0  0  0  0  0  0  0  0  0  0  0  0
   -4.4699    0.8802    0.0000 C   0  0  0  0  0  0  0  0  0  0  0  0
   -3.0239    0.4813    0.0000 C   0  0  0  0  0  0  0  0  0  0  0  0
   -1.9555    1.5341    0.0000 C   0  0  0  0  0  0  0  0  0  0  0  0
   -2.3329    2.9858    0.0000 C   0  0  0  0  0  0  0  0  0  0  0  0
   -3.7789    3.3847    0.0000 C   0  0  0  0  0  0  0  0  0  0  0  0
   -4.8474    2.3319    0.0000 C   0  0  0  0  0  0  0  0  0  0  0  0
   -6.4737    1.0001    0.0000 C   0  0  0  0  0  0  0  0  0  0  0  0
   -7.8780    0.4729    0.0000 C   0  0  0  0  0  0  0  0  0  0  0  0
   -7.8106   -1.0256    0.0000 C   0  0  0  0  0  0  0  0  0  0  0  0
   -6.3646   -1.4245    0.0000 C   0  0  0  0  0  0  0  0  0  0  0  0
  1  2  2  0
  2  3  1  0
  3  4  1  0
  4  5  1  0
  5  6  1  0
  6  7  1  0
  7  8  1  0
  8  9  1  0
  9 10  1  0
 10 11  1  0
 11 12  2  0
 12 13  1  0
 13 14  2  0
 14 15  1  0
 15 16  2  0
 10 17  1  0
 17 18  1  0
  2 19  1  0
 19 20  1  0
 20 21  2  0
 21 22  1  0
 22 23  2  0
 23 24  1  0
 24 25  2  0
 19 26  1  0
 26 27  1  0
 27 28  1  0
 28 29  1  0
 18  7  1  0
 29 19  1  0
 16 11  1  0
 25 20  1  0
M  END
>  <ChemBL_ID>  (546) 
CHEMBL540013

>  <Compound_Key>  (546) 
24

>  <Ki>  (546) 
1.17

>  <database>  (546) 
CHEMBL

>  <Assay_ChEMBL_ID>  (546) 
CHEMBL805220

>  <Document_ChEMBL_ID>  (546) 
CHEMBL1127555

$$$$

     RDKit          2D

 32 35  0  0  0  0  0  0  0  0999 V2000
   -5.4441    2.8194    0.0000 O   0  0  0  0  0  0  0  0  0  0  0  0
   -5.7833    1.3583    0.0000 C   0  0  0  0  0  0  0  0  0  0  0  0
   -4.6876    0.3339    0.0000 O   0  0  0  0  0  0  0  0  0  0  0  0
   -3.2526    0.7707    0.0000 C   0  0  0  0  0  0  0  0  0  0  0  0
   -2.1568   -0.2536    0.0000 C   0  0  0  0  0  0  0  0  0  0  0  0
   -0.7218    0.1832    0.0000 C   0  0  0  0  0  0  0  0  0  0  0  0
    0.3740   -0.8412    0.0000 C   0  0  0  0  0  0  0  0  0  0  0  0
    1.8090   -0.4044    0.0000 C   0  0  0  0  0  0  0  0  0  0  0  0
    2.9047   -1.4287    0.0000 C   0  0  0  0  0  0  0  0  0  0  0  0
    4.3397   -0.9919    0.0000 N   0  0  0  0  0  0  0  0  0  0  0  0
    5.4355   -2.0163    0.0000 C   0  0  0  0  0  0  0  0  0  0  0  0
    6.8705   -1.5795    0.0000 C   0  0  0  0  0  0  0  0  0  0  0  0
    7.2097   -0.1184    0.0000 C   0  0  0  0  0  0  0  0  0  0  0  0
    8.6447    0.3184    0.0000 C   0  0  0  0  0  0  0  0  0  0  0  0
    9.7405   -0.7059    0.0000 C   0  0  0  0  0  0  0  0  0  0  0  0
   11.1755   -0.2691    0.0000 C   0  0  0  0  0  0  0  0  0  0  0  0
   11.5147    1.1920    0.0000 C   0  0  0  0  0  0  0  0  0  0  0  0
   10.4189    2.2164    0.0000 C   0  0  0  0  0  0  0  0  0  0  0  0
    8.9839    1.7796    0.0000 C   0  0  0  0  0  0  0  0  0  0  0  0
    6.1139    0.9060    0.0000 C   0  0  0  0  0  0  0  0  0  0  0  0
    4.6789    0.4692    0.0000 C   0  0  0  0  0  0  0  0  0  0  0  0
   -7.2183    0.9215    0.0000 C   0  0  0  0  0  0  0  0  0  0  0  0
   -6.6339   -0.4600    0.0000 C   0  0  0  0  0  0  0  0  0  0  0  0
   -7.5381   -1.6568    0.0000 C   0  0  0  0  0  0  0  0  0  0  0  0
   -6.9537   -3.0383    0.0000 C   0  0  0  0  0  0  0  0  0  0  0  0
   -5.4652   -3.2229    0.0000 C   0  0  0  0  0  0  0  0  0  0  0  0
   -4.5610   -2.0261    0.0000 C   0  0  0  0  0  0  0  0  0  0  0  0
   -5.1454   -0.6446    0.0000 C   0  0  0  0  0  0  0  0  0  0  0  0
   -8.5312    0.1959    0.0000 C   0  0  0  0  0  0  0  0  0  0  0  0
   -9.6269    1.2202    0.0000 C   0  0  0  0  0  0  0  0  0  0  0  0
   -8.9913    2.5789    0.0000 C   0  0  0  0  0  0  0  0  0  0  0  0
   -7.5027    2.3943    0.0000 C   0  0  0  0  0  0  0  0  0  0  0  0
  1  2  2  0
  2  3  1  0
  3  4  1  0
  4  5  1  0
  5  6  1  0
  6  7  1  0
  7  8  1  0
  8  9  1  0
  9 10  1  0
 10 11  1  0
 11 12  1  0
 12 13  1  0
 13 14  1  0
 14 15  2  0
 15 16  1  0
 16 17  2  0
 17 18  1  0
 18 19  2  0
 13 20  1  0
 20 21  1  0
  2 22  1  0
 22 23  1  0
 23 24  2  0
 24 25  1  0
 25 26  2  0
 26 27  1  0
 27 28  2  0
 22 29  1  0
 29 30  1  0
 30 31  1  0
 31 32  1  0
 21 10  1  0
 32 22  1  0
 19 14  1  0
 28 23  1  0
M  END
>  <ChemBL_ID>  (547) 
CHEMBL539252

>  <Compound_Key>  (547) 
34

>  <Ki>  (547) 
1.88

>  <database>  (547) 
CHEMBL

>  <Assay_ChEMBL_ID>  (547) 
CHEMBL805220

>  <Document_ChEMBL_ID>  (547) 
CHEMBL1127555

$$$$

     RDKit          2D

 31 34  0  0  0  0  0  0  0  0999 V2000
   -5.6941   -2.5508    0.0000 O   0  0  0  0  0  0  0  0  0  0  0  0
   -5.5092   -1.0622    0.0000 C   0  0  0  0  0  0  0  0  0  0  0  0
   -4.1276   -0.4781    0.0000 O   0  0  0  0  0  0  0  0  0  0  0  0
   -2.9309   -1.3826    0.0000 C   0  0  0  0  0  0  0  0  0  0  0  0
   -1.5493   -0.7985    0.0000 C   0  0  0  0  0  0  0  0  0  0  0  0
   -0.3527   -1.7029    0.0000 C   0  0  0  0  0  0  0  0  0  0  0  0
    1.0289   -1.1188    0.0000 C   0  0  0  0  0  0  0  0  0  0  0  0
    2.2256   -2.0233    0.0000 C   0  0  0  0  0  0  0  0  0  0  0  0
    3.6072   -1.4392    0.0000 N   0  0  0  0  0  0  0  0  0  0  0  0
    4.8038   -2.3436    0.0000 C   0  0  0  0  0  0  0  0  0  0  0  0
    6.1854   -1.7596    0.0000 C   0  0  0  0  0  0  0  0  0  0  0  0
    6.3704   -0.2710    0.0000 C   0  0  0  0  0  0  0  0  0  0  0  0
    7.7520    0.3131    0.0000 C   0  0  0  0  0  0  0  0  0  0  0  0
    8.9486   -0.5914    0.0000 C   0  0  0  0  0  0  0  0  0  0  0  0
   10.3303   -0.0073    0.0000 C   0  0  0  0  0  0  0  0  0  0  0  0
   10.5152    1.4813    0.0000 C   0  0  0  0  0  0  0  0  0  0  0  0
    9.3186    2.3857    0.0000 C   0  0  0  0  0  0  0  0  0  0  0  0
    7.9370    1.8017    0.0000 C   0  0  0  0  0  0  0  0  0  0  0  0
    5.1738    0.6335    0.0000 C   0  0  0  0  0  0  0  0  0  0  0  0
    3.7922    0.0494    0.0000 C   0  0  0  0  0  0  0  0  0  0  0  0
   -6.7058   -0.1577    0.0000 C   0  0  0  0  0  0  0  0  0  0  0  0
   -5.6812    0.9378    0.0000 C   0  0  0  0  0  0  0  0  0  0  0  0
   -4.2202    0.5983    0.0000 C   0  0  0  0  0  0  0  0  0  0  0  0
   -3.1956    1.6938    0.0000 C   0  0  0  0  0  0  0  0  0  0  0  0
   -3.6320    3.1289    0.0000 C   0  0  0  0  0  0  0  0  0  0  0  0
   -5.0931    3.4684    0.0000 C   0  0  0  0  0  0  0  0  0  0  0  0
   -6.1177    2.3729    0.0000 C   0  0  0  0  0  0  0  0  0  0  0  0
   -7.6883    0.9757    0.0000 C   0  0  0  0  0  0  0  0  0  0  0  0
   -9.0699    0.3916    0.0000 C   0  0  0  0  0  0  0  0  0  0  0  0
   -8.9413   -1.1028    0.0000 C   0  0  0  0  0  0  0  0  0  0  0  0
   -7.4802   -1.4424    0.0000 C   0  0  0  0  0  0  0  0  0  0  0  0
  1  2  2  0
  2  3  1  0
  3  4  1  0
  4  5  1  0
  5  6  1  0
  6  7  1  0
  7  8  1  0
  8  9  1  0
  9 10  1  0
 10 11  1  0
 11 12  1  0
 12 13  1  0
 13 14  2  0
 14 15  1  0
 15 16  2  0
 16 17  1  0
 17 18  2  0
 12 19  1  0
 19 20  1  0
  2 21  1  0
 21 22  1  0
 22 23  2  0
 23 24  1  0
 24 25  2  0
 25 26  1  0
 26 27  2  0
 21 28  1  0
 28 29  1  0
 29 30  1  0
 30 31  1  0
 20  9  1  0
 31 21  1  0
 18 13  1  0
 27 22  1  0
M  END
>  <ChemBL_ID>  (548) 
CHEMBL542380

>  <Compound_Key>  (548) 
33

>  <Ki>  (548) 
1.05

>  <database>  (548) 
CHEMBL

>  <Assay_ChEMBL_ID>  (548) 
CHEMBL805220

>  <Document_ChEMBL_ID>  (548) 
CHEMBL1127555

$$$$

     RDKit          2D

 29 32  0  0  0  0  0  0  0  0999 V2000
   -2.6428    2.8268    0.0000 O   0  0  0  0  0  0  0  0  0  0  0  0
   -3.1938    1.4316    0.0000 C   0  0  0  0  0  0  0  0  0  0  0  0
   -2.2611    0.2569    0.0000 O   0  0  0  0  0  0  0  0  0  0  0  0
   -0.7774    0.4772    0.0000 C   0  0  0  0  0  0  0  0  0  0  0  0
    0.1553   -0.6975    0.0000 C   0  0  0  0  0  0  0  0  0  0  0  0
    1.6390   -0.4772    0.0000 N   0  0  0  0  0  0  0  0  0  0  0  0
    2.5717   -1.6520    0.0000 C   0  0  0  0  0  0  0  0  0  0  0  0
    4.0554   -1.4316    0.0000 C   0  0  0  0  0  0  0  0  0  0  0  0
    4.6065   -0.0365    0.0000 C   0  0  0  0  0  0  0  0  0  0  0  0
    6.0902    0.1839    0.0000 C   0  0  0  0  0  0  0  0  0  0  0  0
    7.0229   -0.9909    0.0000 C   0  0  0  0  0  0  0  0  0  0  0  0
    8.5066   -0.7705    0.0000 C   0  0  0  0  0  0  0  0  0  0  0  0
    9.0576    0.6246    0.0000 C   0  0  0  0  0  0  0  0  0  0  0  0
    8.1249    1.7994    0.0000 C   0  0  0  0  0  0  0  0  0  0  0  0
    6.6412    1.5790    0.0000 C   0  0  0  0  0  0  0  0  0  0  0  0
    3.6738    1.1383    0.0000 C   0  0  0  0  0  0  0  0  0  0  0  0
    2.1900    0.9179    0.0000 C   0  0  0  0  0  0  0  0  0  0  0  0
   -4.6776    1.2113    0.0000 C   0  0  0  0  0  0  0  0  0  0  0  0
   -4.3033   -0.2413    0.0000 C   0  0  0  0  0  0  0  0  0  0  0  0
   -5.3742   -1.2917    0.0000 C   0  0  0  0  0  0  0  0  0  0  0  0
   -4.9999   -2.7442    0.0000 C   0  0  0  0  0  0  0  0  0  0  0  0
   -3.5549   -3.1464    0.0000 C   0  0  0  0  0  0  0  0  0  0  0  0
   -3.1806   -4.5990    0.0000 Cl  0  0  0  0  0  0  0  0  0  0  0  0
   -2.4840   -2.0960    0.0000 C   0  0  0  0  0  0  0  0  0  0  0  0
   -2.8583   -0.6435    0.0000 C   0  0  0  0  0  0  0  0  0  0  0  0
   -6.0831    0.6873    0.0000 C   0  0  0  0  0  0  0  0  0  0  0  0
   -7.0158    1.8620    0.0000 C   0  0  0  0  0  0  0  0  0  0  0  0
   -6.1867    3.1121    0.0000 C   0  0  0  0  0  0  0  0  0  0  0  0
   -4.7416    2.7099    0.0000 C   0  0  0  0  0  0  0  0  0  0  0  0
  1  2  2  0
  2  3  1  0
  3  4  1  0
  4  5  1  0
  5  6  1  0
  6  7  1  0
  7  8  1  0
  8  9  1  0
  9 10  1  0
 10 11  2  0
 11 12  1  0
 12 13  2  0
 13 14  1  0
 14 15  2  0
  9 16  1  0
 16 17  1  0
  2 18  1  0
 18 19  1  0
 19 20  2  0
 20 21  1  0
 21 22  2  0
 22 23  1  0
 22 24  1  0
 24 25  2  0
 18 26  1  0
 26 27  1  0
 27 28  1  0
 28 29  1  0
 17  6  1  0
 29 18  1  0
 15 10  1  0
 25 19  1  0
M  END
>  <ChemBL_ID>  (549) 
CHEMBL544041

>  <Compound_Key>  (549) 
18

>  <Ki>  (549) 
23.9

>  <database>  (549) 
CHEMBL

>  <Assay_ChEMBL_ID>  (549) 
CHEMBL805220

>  <Document_ChEMBL_ID>  (549) 
CHEMBL1127555

$$$$

     RDKit          2D

 25 28  0  0  0  0  0  0  0  0999 V2000
   -3.2910   -3.1317    0.0000 O   0  0  0  0  0  0  0  0  0  0  0  0
   -3.2330   -1.6329    0.0000 C   0  0  0  0  0  0  0  0  0  0  0  0
   -4.5021   -0.8332    0.0000 C   0  0  0  0  0  0  0  0  0  0  0  0
   -4.4441    0.6657    0.0000 C   0  0  0  0  0  0  0  0  0  0  0  0
   -5.7132    1.4653    0.0000 C   0  0  0  0  0  0  0  0  0  0  0  0
   -7.0402    0.7661    0.0000 C   0  0  0  0  0  0  0  0  0  0  0  0
   -7.0982   -0.7328    0.0000 C   0  0  0  0  0  0  0  0  0  0  0  0
   -5.8291   -1.5324    0.0000 C   0  0  0  0  0  0  0  0  0  0  0  0
   -1.9059   -0.9336    0.0000 C   0  0  0  0  0  0  0  0  0  0  0  0
   -0.6369   -1.7333    0.0000 C   0  0  0  0  0  0  0  0  0  0  0  0
    0.6902   -1.0341    0.0000 C   0  0  0  0  0  0  0  0  0  0  0  0
    0.7482    0.4648    0.0000 C   0  0  0  0  0  0  0  0  0  0  0  0
   -0.5209    1.2645    0.0000 C   0  0  0  0  0  0  0  0  0  0  0  0
   -1.8479    0.5652    0.0000 C   0  0  0  0  0  0  0  0  0  0  0  0
   -0.1525    2.7185    0.0000 S   0  0  0  0  0  0  0  0  0  0  0  0
    1.3442    2.8175    0.0000 C   0  0  0  0  0  0  0  0  0  0  0  0
    2.1438    4.0866    0.0000 O   0  0  0  0  0  0  0  0  0  0  0  0
    1.9009    1.4247    0.0000 N   0  0  0  0  0  0  0  0  0  0  0  0
    3.3549    1.0563    0.0000 C   0  0  0  0  0  0  0  0  0  0  0  0
    3.7630   -0.3871    0.0000 C   0  0  0  0  0  0  0  0  0  0  0  0
    5.2170   -0.7555    0.0000 N   0  0  0  0  0  0  0  0  0  0  0  0
    6.3697    0.2044    0.0000 C   0  0  0  0  0  0  0  0  0  0  0  0
    7.6388   -0.5953    0.0000 C   0  0  0  0  0  0  0  0  0  0  0  0
    7.2704   -2.0493    0.0000 C   0  0  0  0  0  0  0  0  0  0  0  0
    5.7737   -2.1484    0.0000 C   0  0  0  0  0  0  0  0  0  0  0  0
  1  2  2  0
  2  3  1  0
  3  4  2  0
  4  5  1  0
  5  6  2  0
  6  7  1  0
  7  8  2  0
  2  9  1  0
  9 10  2  0
 10 11  1  0
 11 12  2  0
 12 13  1  0
 13 14  2  0
 13 15  1  0
 15 16  1  0
 16 17  2  0
 16 18  1  0
 18 19  1  0
 19 20  1  0
 20 21  1  0
 21 22  1  0
 22 23  1  0
 23 24  1  0
 24 25  1  0
  8  3  1  0
 14  9  1  0
 25 21  1  0
 18 12  1  0
M  END
>  <ChemBL_ID>  (550) 
CHEMBL15288

>  <Compound_Key>  (550) 
33

>  <Ki>  (550) 
225.0

>  <database>  (550) 
CHEMBL

>  <Assay_ChEMBL_ID>  (550) 
CHEMBL805223

>  <Document_ChEMBL_ID>  (550) 
CHEMBL1131315

$$$$

     RDKit          2D

 21 22  0  0  0  0  0  0  0  0999 V2000
   -8.3293    1.6008    0.0000 C   0  0  0  0  0  0  0  0  0  0  0  0
   -6.8357    1.7385    0.0000 C   0  0  0  0  0  0  0  0  0  0  0  0
   -5.9696    0.5138    0.0000 C   0  0  0  0  0  0  0  0  0  0  0  0
   -4.4759    0.6514    0.0000 C   0  0  0  0  0  0  0  0  0  0  0  0
   -3.6099   -0.5733    0.0000 C   0  0  0  0  0  0  0  0  0  0  0  0
   -4.2375   -1.9357    0.0000 O   0  0  0  0  0  0  0  0  0  0  0  0
   -2.1162   -0.4357    0.0000 C   0  0  0  0  0  0  0  0  0  0  0  0
   -1.4886    0.9267    0.0000 C   0  0  0  0  0  0  0  0  0  0  0  0
    0.0051    1.0644    0.0000 C   0  0  0  0  0  0  0  0  0  0  0  0
    0.8711   -0.1604    0.0000 C   0  0  0  0  0  0  0  0  0  0  0  0
    0.2435   -1.5227    0.0000 C   0  0  0  0  0  0  0  0  0  0  0  0
   -1.2502   -1.6604    0.0000 C   0  0  0  0  0  0  0  0  0  0  0  0
    1.3452   -2.5406    0.0000 S   0  0  0  0  0  0  0  0  0  0  0  0
    2.6538   -1.8074    0.0000 C   0  0  0  0  0  0  0  0  0  0  0  0
    4.0162   -2.4350    0.0000 O   0  0  0  0  0  0  0  0  0  0  0  0
    2.3608   -0.3363    0.0000 N   0  0  0  0  0  0  0  0  0  0  0  0
    3.3787    0.7655    0.0000 C   0  0  0  0  0  0  0  0  0  0  0  0
    4.8418    0.4348    0.0000 C   0  0  0  0  0  0  0  0  0  0  0  0
    5.8597    1.5366    0.0000 N   0  0  0  0  0  0  0  0  0  0  0  0
    7.3228    1.2059    0.0000 C   0  0  0  0  0  0  0  0  0  0  0  0
    5.4145    2.9690    0.0000 C   0  0  0  0  0  0  0  0  0  0  0  0
  1  2  1  0
  2  3  1  0
  3  4  1  0
  4  5  1  0
  5  6  2  0
  5  7  1  0
  7  8  2  0
  8  9  1  0
  9 10  2  0
 10 11  1  0
 11 12  2  0
 11 13  1  0
 13 14  1  0
 14 15  2  0
 14 16  1  0
 16 17  1  0
 17 18  1  0
 18 19  1  0
 19 20  1  0
 19 21  1  0
 12  7  1  0
 16 10  1  0
M  END
>  <ChemBL_ID>  (551) 
CHEMBL14900

>  <Compound_Key>  (551) 
36

>  <Ki>  (551) 
4612.0

>  <database>  (551) 
CHEMBL

>  <Assay_ChEMBL_ID>  (551) 
CHEMBL805223

>  <Document_ChEMBL_ID>  (551) 
CHEMBL1131315

$$$$

     RDKit          2D

 22 24  0  0  0  0  0  0  0  0999 V2000
    7.3817   -2.1631    0.0000 C   0  0  0  0  0  0  0  0  0  0  0  0
    5.9024   -1.9146    0.0000 C   0  0  0  0  0  0  0  0  0  0  0  0
    5.3779   -0.5093    0.0000 C   0  0  0  0  0  0  0  0  0  0  0  0
    6.3328    0.6476    0.0000 O   0  0  0  0  0  0  0  0  0  0  0  0
    3.8987   -0.2608    0.0000 C   0  0  0  0  0  0  0  0  0  0  0  0
    2.9438   -1.4176    0.0000 C   0  0  0  0  0  0  0  0  0  0  0  0
    1.4646   -1.1692    0.0000 C   0  0  0  0  0  0  0  0  0  0  0  0
    0.9401    0.2362    0.0000 C   0  0  0  0  0  0  0  0  0  0  0  0
    1.8950    1.3930    0.0000 C   0  0  0  0  0  0  0  0  0  0  0  0
    3.3742    1.1445    0.0000 C   0  0  0  0  0  0  0  0  0  0  0  0
    1.0898    2.6586    0.0000 S   0  0  0  0  0  0  0  0  0  0  0  0
   -0.3627    2.2839    0.0000 C   0  0  0  0  0  0  0  0  0  0  0  0
   -1.5195    3.2388    0.0000 O   0  0  0  0  0  0  0  0  0  0  0  0
   -0.4552    0.7868    0.0000 N   0  0  0  0  0  0  0  0  0  0  0  0
   -1.7207   -0.0184    0.0000 C   0  0  0  0  0  0  0  0  0  0  0  0
   -3.0508    0.6751    0.0000 C   0  0  0  0  0  0  0  0  0  0  0  0
   -4.3164   -0.1301    0.0000 N   0  0  0  0  0  0  0  0  0  0  0  0
   -5.6465    0.5634    0.0000 C   0  0  0  0  0  0  0  0  0  0  0  0
   -6.9121   -0.2418    0.0000 C   0  0  0  0  0  0  0  0  0  0  0  0
   -6.8476   -1.7404    0.0000 C   0  0  0  0  0  0  0  0  0  0  0  0
   -5.5175   -2.4339    0.0000 C   0  0  0  0  0  0  0  0  0  0  0  0
   -4.2519   -1.6287    0.0000 C   0  0  0  0  0  0  0  0  0  0  0  0
  1  2  1  0
  2  3  1  0
  3  4  2  0
  3  5  1  0
  5  6  2  0
  6  7  1  0
  7  8  2  0
  8  9  1  0
  9 10  2  0
  9 11  1  0
 11 12  1  0
 12 13  2  0
 12 14  1  0
 14 15  1  0
 15 16  1  0
 16 17  1  0
 17 18  1  0
 18 19  1  0
 19 20  1  0
 20 21  1  0
 21 22  1  0
 10  5  1  0
 22 17  1  0
 14  8  1  0
M  END
>  <ChemBL_ID>  (552) 
CHEMBL14876

>  <Compound_Key>  (552) 
43

>  <Ki>  (552) 
481.0

>  <database>  (552) 
CHEMBL

>  <Assay_ChEMBL_ID>  (552) 
CHEMBL805223

>  <Document_ChEMBL_ID>  (552) 
CHEMBL1131315

$$$$

     RDKit          2D

 21 23  0  0  0  0  0  0  0  0999 V2000
    7.1367   -2.0163    0.0000 C   0  0  0  0  0  0  0  0  0  0  0  0
    5.6504   -1.8137    0.0000 C   0  0  0  0  0  0  0  0  0  0  0  0
    5.0827   -0.4253    0.0000 C   0  0  0  0  0  0  0  0  0  0  0  0
    6.0013    0.7605    0.0000 O   0  0  0  0  0  0  0  0  0  0  0  0
    3.5965   -0.2227    0.0000 C   0  0  0  0  0  0  0  0  0  0  0  0
    2.6779   -1.4086    0.0000 C   0  0  0  0  0  0  0  0  0  0  0  0
    1.1917   -1.2060    0.0000 C   0  0  0  0  0  0  0  0  0  0  0  0
    0.6240    0.1824    0.0000 C   0  0  0  0  0  0  0  0  0  0  0  0
    1.5425    1.3683    0.0000 C   0  0  0  0  0  0  0  0  0  0  0  0
    3.0288    1.1657    0.0000 C   0  0  0  0  0  0  0  0  0  0  0  0
    0.6986    2.6083    0.0000 S   0  0  0  0  0  0  0  0  0  0  0  0
   -0.7416    2.1889    0.0000 C   0  0  0  0  0  0  0  0  0  0  0  0
   -1.9274    3.1074    0.0000 O   0  0  0  0  0  0  0  0  0  0  0  0
   -0.7877    0.6896    0.0000 N   0  0  0  0  0  0  0  0  0  0  0  0
   -2.0278   -0.1544    0.0000 C   0  0  0  0  0  0  0  0  0  0  0  0
   -3.3787    0.4976    0.0000 C   0  0  0  0  0  0  0  0  0  0  0  0
   -4.6187   -0.3464    0.0000 N   0  0  0  0  0  0  0  0  0  0  0  0
   -4.6648   -1.8457    0.0000 C   0  0  0  0  0  0  0  0  0  0  0  0
   -6.1050   -2.2652    0.0000 C   0  0  0  0  0  0  0  0  0  0  0  0
   -6.9490   -1.0251    0.0000 C   0  0  0  0  0  0  0  0  0  0  0  0
   -6.0304    0.1608    0.0000 C   0  0  0  0  0  0  0  0  0  0  0  0
  1  2  1  0
  2  3  1  0
  3  4  2  0
  3  5  1  0
  5  6  2  0
  6  7  1  0
  7  8  2  0
  8  9  1  0
  9 10  2  0
  9 11  1  0
 11 12  1  0
 12 13  2  0
 12 14  1  0
 14 15  1  0
 15 16  1  0
 16 17  1  0
 17 18  1  0
 18 19  1  0
 19 20  1  0
 20 21  1  0
 10  5  1  0
 21 17  1  0
 14  8  1  0
M  END
>  <ChemBL_ID>  (553) 
CHEMBL14835

>  <Compound_Key>  (553) 
42

>  <Ki>  (553) 
919.0

>  <database>  (553) 
CHEMBL

>  <Assay_ChEMBL_ID>  (553) 
CHEMBL805223

>  <Document_ChEMBL_ID>  (553) 
CHEMBL1131315

$$$$

     RDKit          2D

 22 24  0  0  0  0  0  0  0  0999 V2000
    7.3817   -2.1631    0.0000 C   0  0  0  0  0  0  0  0  0  0  0  0
    5.9024   -1.9146    0.0000 C   0  0  0  0  0  0  0  0  0  0  0  0
    5.3779   -0.5093    0.0000 C   0  0  0  0  0  0  0  0  0  0  0  0
    6.3328    0.6476    0.0000 O   0  0  0  0  0  0  0  0  0  0  0  0
    3.8987   -0.2608    0.0000 C   0  0  0  0  0  0  0  0  0  0  0  0
    2.9438   -1.4176    0.0000 C   0  0  0  0  0  0  0  0  0  0  0  0
    1.4646   -1.1692    0.0000 C   0  0  0  0  0  0  0  0  0  0  0  0
    0.9401    0.2362    0.0000 C   0  0  0  0  0  0  0  0  0  0  0  0
    1.8950    1.3930    0.0000 C   0  0  0  0  0  0  0  0  0  0  0  0
    3.3742    1.1445    0.0000 C   0  0  0  0  0  0  0  0  0  0  0  0
    1.0898    2.6586    0.0000 O   0  0  0  0  0  0  0  0  0  0  0  0
   -0.3627    2.2839    0.0000 C   0  0  0  0  0  0  0  0  0  0  0  0
   -1.5195    3.2388    0.0000 O   0  0  0  0  0  0  0  0  0  0  0  0
   -0.4552    0.7868    0.0000 N   0  0  0  0  0  0  0  0  0  0  0  0
   -1.7207   -0.0184    0.0000 C   0  0  0  0  0  0  0  0  0  0  0  0
   -3.0508    0.6751    0.0000 C   0  0  0  0  0  0  0  0  0  0  0  0
   -4.3164   -0.1301    0.0000 N   0  0  0  0  0  0  0  0  0  0  0  0
   -5.6465    0.5634    0.0000 C   0  0  0  0  0  0  0  0  0  0  0  0
   -6.9121   -0.2418    0.0000 C   0  0  0  0  0  0  0  0  0  0  0  0
   -6.8476   -1.7404    0.0000 C   0  0  0  0  0  0  0  0  0  0  0  0
   -5.5175   -2.4339    0.0000 C   0  0  0  0  0  0  0  0  0  0  0  0
   -4.2519   -1.6287    0.0000 C   0  0  0  0  0  0  0  0  0  0  0  0
  1  2  1  0
  2  3  1  0
  3  4  2  0
  3  5  1  0
  5  6  2  0
  6  7  1  0
  7  8  2  0
  8  9  1  0
  9 10  2  0
  9 11  1  0
 11 12  1  0
 12 13  2  0
 12 14  1  0
 14 15  1  0
 15 16  1  0
 16 17  1  0
 17 18  1  0
 18 19  1  0
 19 20  1  0
 20 21  1  0
 21 22  1  0
 10  5  1  0
 22 17  1  0
 14  8  1  0
M  END
>  <ChemBL_ID>  (554) 
CHEMBL276935

>  <Compound_Key>  (554) 
38

>  <Ki>  (554) 
900.0

>  <database>  (554) 
CHEMBL

>  <Assay_ChEMBL_ID>  (554) 
CHEMBL805223

>  <Document_ChEMBL_ID>  (554) 
CHEMBL1131315

$$$$

     RDKit          2D

 25 28  0  0  0  0  0  0  0  0999 V2000
   -1.5140   -4.0918    0.0000 O   0  0  0  0  0  0  0  0  0  0  0  0
   -0.7740   -2.7871    0.0000 C   0  0  0  0  0  0  0  0  0  0  0  0
    0.7165   -2.6188    0.0000 O   0  0  0  0  0  0  0  0  0  0  0  0
    1.0171   -1.1493    0.0000 C   0  0  0  0  0  0  0  0  0  0  0  0
    2.3104   -0.3893    0.0000 C   0  0  0  0  0  0  0  0  0  0  0  0
    2.2989    1.1106    0.0000 C   0  0  0  0  0  0  0  0  0  0  0  0
    3.5921    1.8706    0.0000 C   0  0  0  0  0  0  0  0  0  0  0  0
    4.8969    1.1305    0.0000 C   0  0  0  0  0  0  0  0  0  0  0  0
    4.9084   -0.3694    0.0000 C   0  0  0  0  0  0  0  0  0  0  0  0
    6.2131   -1.1094    0.0000 C   0  0  0  0  0  0  0  0  0  0  0  0
    7.5064   -0.3495    0.0000 C   0  0  0  0  0  0  0  0  0  0  0  0
    7.4949    1.1505    0.0000 C   0  0  0  0  0  0  0  0  0  0  0  0
    6.1901    1.8905    0.0000 C   0  0  0  0  0  0  0  0  0  0  0  0
    0.9941    1.8506    0.0000 C   0  0  0  0  0  0  0  0  0  0  0  0
   -0.2991    1.0907    0.0000 C   0  0  0  0  0  0  0  0  0  0  0  0
   -0.2876   -0.4093    0.0000 C   0  0  0  0  0  0  0  0  0  0  0  0
   -1.3946   -1.4215    0.0000 N   0  0  0  0  0  0  0  0  0  0  0  0
   -2.8642   -1.1209    0.0000 C   0  0  0  0  0  0  0  0  0  0  0  0
   -3.3386    0.3021    0.0000 C   0  0  0  0  0  0  0  0  0  0  0  0
   -4.8082    0.6027    0.0000 N   0  0  0  0  0  0  0  0  0  0  0  0
   -5.2827    2.0257    0.0000 C   0  0  0  0  0  0  0  0  0  0  0  0
   -6.7522    2.3263    0.0000 C   0  0  0  0  0  0  0  0  0  0  0  0
   -7.7473    1.2040    0.0000 O   0  0  0  0  0  0  0  0  0  0  0  0
   -7.2729   -0.2190    0.0000 C   0  0  0  0  0  0  0  0  0  0  0  0
   -5.8033   -0.5196    0.0000 C   0  0  0  0  0  0  0  0  0  0  0  0
  1  2  2  0
  2  3  1  0
  3  4  1  0
  4  5  2  0
  5  6  1  0
  6  7  1  0
  7  8  1  0
  8  9  2  0
  9 10  1  0
 10 11  2  0
 11 12  1  0
 12 13  2  0
  6 14  2  0
 14 15  1  0
 15 16  2  0
 16 17  1  0
 17 18  1  0
 18 19  1  0
 19 20  1  0
 20 21  1  0
 21 22  1  0
 22 23  1  0
 23 24  1  0
 24 25  1  0
 17  2  1  0
 25 20  1  0
 16  4  1  0
 13  8  1  0
M  END
>  <ChemBL_ID>  (555) 
CHEMBL15223

>  <Compound_Key>  (555) 
31

>  <Ki>  (555) 
515.0

>  <database>  (555) 
CHEMBL

>  <Assay_ChEMBL_ID>  (555) 
CHEMBL805223

>  <Document_ChEMBL_ID>  (555) 
CHEMBL1131315

$$$$

     RDKit          2D

 21 23  0  0  0  0  0  0  0  0999 V2000
    7.7114   -2.0279    0.0000 C   0  0  0  0  0  0  0  0  0  0  0  0
    6.2289   -1.7995    0.0000 C   0  0  0  0  0  0  0  0  0  0  0  0
    5.6855   -0.4014    0.0000 C   0  0  0  0  0  0  0  0  0  0  0  0
    4.2030   -0.1730    0.0000 C   0  0  0  0  0  0  0  0  0  0  0  0
    3.2639   -1.3427    0.0000 C   0  0  0  0  0  0  0  0  0  0  0  0
    1.7814   -1.1143    0.0000 C   0  0  0  0  0  0  0  0  0  0  0  0
    1.2380    0.2838    0.0000 C   0  0  0  0  0  0  0  0  0  0  0  0
    2.1770    1.4535    0.0000 C   0  0  0  0  0  0  0  0  0  0  0  0
    3.6595    1.2251    0.0000 C   0  0  0  0  0  0  0  0  0  0  0  0
    1.3548    2.7081    0.0000 S   0  0  0  0  0  0  0  0  0  0  0  0
   -0.0925    2.3137    0.0000 C   0  0  0  0  0  0  0  0  0  0  0  0
   -1.2622    3.2528    0.0000 O   0  0  0  0  0  0  0  0  0  0  0  0
   -0.1647    0.8155    0.0000 N   0  0  0  0  0  0  0  0  0  0  0  0
   -1.4192   -0.0068    0.0000 C   0  0  0  0  0  0  0  0  0  0  0  0
   -2.7586    0.6686    0.0000 C   0  0  0  0  0  0  0  0  0  0  0  0
   -4.0131   -0.1537    0.0000 N   0  0  0  0  0  0  0  0  0  0  0  0
   -5.3525    0.5217    0.0000 C   0  0  0  0  0  0  0  0  0  0  0  0
   -6.6071   -0.3006    0.0000 C   0  0  0  0  0  0  0  0  0  0  0  0
   -6.5223   -1.7982    0.0000 C   0  0  0  0  0  0  0  0  0  0  0  0
   -5.1829   -2.4735    0.0000 C   0  0  0  0  0  0  0  0  0  0  0  0
   -3.9283   -1.6513    0.0000 C   0  0  0  0  0  0  0  0  0  0  0  0
  1  2  1  0
  2  3  1  0
  3  4  1  0
  4  5  2  0
  5  6  1  0
  6  7  2  0
  7  8  1  0
  8  9  2  0
  8 10  1  0
 10 11  1  0
 11 12  2  0
 11 13  1  0
 13 14  1  0
 14 15  1  0
 15 16  1  0
 16 17  1  0
 17 18  1  0
 18 19  1  0
 19 20  1  0
 20 21  1  0
  9  4  1  0
 21 16  1  0
 13  7  1  0
M  END
>  <ChemBL_ID>  (556) 
CHEMBL274699

>  <Compound_Key>  (556) 
45

>  <Ki>  (556) 
18.1

>  <database>  (556) 
CHEMBL

>  <Assay_ChEMBL_ID>  (556) 
CHEMBL805223

>  <Document_ChEMBL_ID>  (556) 
CHEMBL1131315

$$$$

     RDKit          2D

 31 32  0  0  0  0  0  0  0  0999 V2000
    1.8720    5.7971    0.0000 C   0  0  0  0  0  0  0  0  0  0  0  0
    1.4804    4.3492    0.0000 N   0  0  0  0  0  0  0  0  0  0  0  0
    2.5385    3.2860    0.0000 C   0  0  0  0  0  0  0  0  0  0  0  0
    2.1468    1.8380    0.0000 C   0  0  0  0  0  0  0  0  0  0  0  0
    3.2049    0.7748    0.0000 C   0  0  0  0  0  0  0  0  0  0  0  0
    2.8132   -0.6731    0.0000 C   0  0  0  0  0  0  0  0  0  0  0  0
    3.8714   -1.7363    0.0000 C   0  0  0  0  0  0  0  0  0  0  0  0
    5.3212   -1.3515    0.0000 C   0  0  0  0  0  0  0  0  0  0  0  0
    6.3793   -2.4147    0.0000 Cl  0  0  0  0  0  0  0  0  0  0  0  0
    5.7129    0.0964    0.0000 C   0  0  0  0  0  0  0  0  0  0  0  0
    7.1627    0.4812    0.0000 Cl  0  0  0  0  0  0  0  0  0  0  0  0
    4.6547    1.1596    0.0000 C   0  0  0  0  0  0  0  0  0  0  0  0
    0.0305    3.9644    0.0000 C   0  0  0  0  0  0  0  0  0  0  0  0
   -1.0276    5.0276    0.0000 C   0  0  0  0  0  0  0  0  0  0  0  0
   -2.4774    4.6428    0.0000 N   0  0  0  0  0  0  0  0  0  0  0  0
   -3.5355    5.7060    0.0000 C   0  0  0  0  0  0  0  0  0  0  0  0
   -2.8691    3.1949    0.0000 C   0  0  0  0  0  0  0  0  0  0  0  0
   -4.3189    2.8101    0.0000 C   0  0  0  0  0  0  0  0  0  0  0  0
   -4.7106    1.3621    0.0000 N   0  0  0  0  0  0  0  0  0  0  0  0
   -6.1604    0.9774    0.0000 C   0  0  0  0  0  0  0  0  0  0  0  0
   -3.6524    0.2989    0.0000 C   0  0  0  0  0  0  0  0  0  0  0  0
   -4.0441   -1.1490    0.0000 C   0  0  0  0  0  0  0  0  0  0  0  0
   -2.9860   -2.2122    0.0000 N   0  0  0  0  0  0  0  0  0  0  0  0
   -3.3777   -3.6602    0.0000 C   0  0  0  0  0  0  0  0  0  0  0  0
   -1.5362   -1.8274    0.0000 C   0  0  0  0  0  0  0  0  0  0  0  0
   -0.4781   -2.8906    0.0000 C   0  0  0  0  0  0  0  0  0  0  0  0
   -0.8697   -4.3386    0.0000 N   0  0  0  0  0  0  0  0  0  0  0  0
   -2.2714   -4.8728    0.0000 C   0  0  0  0  0  0  0  0  0  0  0  0
   -2.1965   -6.3709    0.0000 C   0  0  0  0  0  0  0  0  0  0  0  0
   -0.7485   -6.7626    0.0000 C   0  0  0  0  0  0  0  0  0  0  0  0
    0.0715   -5.5065    0.0000 C   0  0  0  0  0  0  0  0  0  0  0  0
  1  2  1  0
  2  3  1  0
  3  4  1  0
  4  5  1  0
  5  6  2  0
  6  7  1  0
  7  8  2  0
  8  9  1  0
  8 10  1  0
 10 11  1  0
 10 12  2  0
  2 13  1  0
 13 14  1  0
 14 15  1  0
 15 16  1  0
 15 17  1  0
 17 18  1  0
 18 19  1  0
 19 20  1  0
 19 21  1  0
 21 22  1  0
 22 23  1  0
 23 24  1  0
 23 25  1  0
 25 26  1  0
 26 27  1  0
 27 28  1  0
 28 29  1  0
 29 30  1  0
 30 31  1  0
 12  5  1  0
 31 27  1  0
M  END
>  <ChemBL_ID>  (557) 
CHEMBL107922

>  <Compound_Key>  (557) 
7

>  <Ki>  (557) 
162.0

>  <database>  (557) 
CHEMBL

>  <Assay_ChEMBL_ID>  (557) 
CHEMBL805743

>  <Document_ChEMBL_ID>  (557) 
CHEMBL1127340

$$$$

     RDKit          2D

 27 28  0  0  0  0  0  0  0  0999 V2000
    0.8625    5.1711    0.0000 C   0  0  0  0  0  0  0  0  0  0  0  0
    0.7215    3.6777    0.0000 N   0  0  0  0  0  0  0  0  0  0  0  0
    1.9443    2.8090    0.0000 C   0  0  0  0  0  0  0  0  0  0  0  0
    1.8034    1.3156    0.0000 C   0  0  0  0  0  0  0  0  0  0  0  0
    3.0262    0.4469    0.0000 C   0  0  0  0  0  0  0  0  0  0  0  0
    2.8852   -1.0465    0.0000 C   0  0  0  0  0  0  0  0  0  0  0  0
    4.1080   -1.9152    0.0000 C   0  0  0  0  0  0  0  0  0  0  0  0
    5.4718   -1.2906    0.0000 C   0  0  0  0  0  0  0  0  0  0  0  0
    6.6946   -2.1594    0.0000 Cl  0  0  0  0  0  0  0  0  0  0  0  0
    5.6128    0.2027    0.0000 C   0  0  0  0  0  0  0  0  0  0  0  0
    6.9765    0.8273    0.0000 Cl  0  0  0  0  0  0  0  0  0  0  0  0
    4.3899    1.0715    0.0000 C   0  0  0  0  0  0  0  0  0  0  0  0
   -0.6423    3.0531    0.0000 C   0  0  0  0  0  0  0  0  0  0  0  0
   -1.8651    3.9219    0.0000 C   0  0  0  0  0  0  0  0  0  0  0  0
   -3.2288    3.2973    0.0000 N   0  0  0  0  0  0  0  0  0  0  0  0
   -4.4517    4.1660    0.0000 C   0  0  0  0  0  0  0  0  0  0  0  0
   -3.3698    1.8039    0.0000 C   0  0  0  0  0  0  0  0  0  0  0  0
   -4.7336    1.1793    0.0000 C   0  0  0  0  0  0  0  0  0  0  0  0
   -4.8745   -0.3141    0.0000 N   0  0  0  0  0  0  0  0  0  0  0  0
   -6.2383   -0.9387    0.0000 C   0  0  0  0  0  0  0  0  0  0  0  0
   -3.6517   -1.1828    0.0000 C   0  0  0  0  0  0  0  0  0  0  0  0
   -3.7927   -2.6762    0.0000 C   0  0  0  0  0  0  0  0  0  0  0  0
   -2.5698   -3.5449    0.0000 N   0  0  0  0  0  0  0  0  0  0  0  0
   -1.1483   -3.0663    0.0000 C   0  0  0  0  0  0  0  0  0  0  0  0
   -0.2538   -4.2704    0.0000 C   0  0  0  0  0  0  0  0  0  0  0  0
   -1.1225   -5.4932    0.0000 C   0  0  0  0  0  0  0  0  0  0  0  0
   -2.5539   -5.0449    0.0000 C   0  0  0  0  0  0  0  0  0  0  0  0
  1  2  1  0
  2  3  1  0
  3  4  1  0
  4  5  1  0
  5  6  2  0
  6  7  1  0
  7  8  2  0
  8  9  1  0
  8 10  1  0
 10 11  1  0
 10 12  2  0
  2 13  1  0
 13 14  1  0
 14 15  1  0
 15 16  1  0
 15 17  1  0
 17 18  1  0
 18 19  1  0
 19 20  1  0
 19 21  1  0
 21 22  1  0
 22 23  1  0
 23 24  1  0
 24 25  1  0
 25 26  1  0
 26 27  1  0
 12  5  1  0
 27 23  1  0
M  END
>  <ChemBL_ID>  (558) 
CHEMBL110099

>  <Compound_Key>  (558) 
6

>  <Ki>  (558) 
53.6

>  <database>  (558) 
CHEMBL

>  <Assay_ChEMBL_ID>  (558) 
CHEMBL805743

>  <Document_ChEMBL_ID>  (558) 
CHEMBL1127340

$$$$

     RDKit          2D

 27 28  0  0  0  0  0  0  0  0999 V2000
   -4.5701    4.3575    0.0000 C   0  0  0  0  0  0  0  0  0  0  0  0
   -3.4591    3.3496    0.0000 N   0  0  0  0  0  0  0  0  0  0  0  0
   -2.0308    3.8078    0.0000 C   0  0  0  0  0  0  0  0  0  0  0  0
   -0.9199    2.7999    0.0000 C   0  0  0  0  0  0  0  0  0  0  0  0
    0.5084    3.2580    0.0000 C   0  0  0  0  0  0  0  0  0  0  0  0
    1.6194    2.2502    0.0000 C   0  0  0  0  0  0  0  0  0  0  0  0
    3.0477    2.7083    0.0000 N   0  0  0  0  0  0  0  0  0  0  0  0
    3.3651    4.1744    0.0000 C   0  0  0  0  0  0  0  0  0  0  0  0
    4.1586    1.7004    0.0000 C   0  0  0  0  0  0  0  0  0  0  0  0
    3.8412    0.2344    0.0000 C   0  0  0  0  0  0  0  0  0  0  0  0
    4.9522   -0.7735    0.0000 C   0  0  0  0  0  0  0  0  0  0  0  0
    4.6348   -2.2395    0.0000 C   0  0  0  0  0  0  0  0  0  0  0  0
    5.7457   -3.2474    0.0000 C   0  0  0  0  0  0  0  0  0  0  0  0
    7.1740   -2.7892    0.0000 C   0  0  0  0  0  0  0  0  0  0  0  0
    8.2850   -3.7971    0.0000 Cl  0  0  0  0  0  0  0  0  0  0  0  0
    7.4914   -1.3232    0.0000 C   0  0  0  0  0  0  0  0  0  0  0  0
    8.9197   -0.8650    0.0000 Cl  0  0  0  0  0  0  0  0  0  0  0  0
    6.3805   -0.3153    0.0000 C   0  0  0  0  0  0  0  0  0  0  0  0
   -3.7765    1.8836    0.0000 C   0  0  0  0  0  0  0  0  0  0  0  0
   -5.2048    1.4254    0.0000 C   0  0  0  0  0  0  0  0  0  0  0  0
   -5.5222   -0.0406    0.0000 C   0  0  0  0  0  0  0  0  0  0  0  0
   -6.9505   -0.4988    0.0000 C   0  0  0  0  0  0  0  0  0  0  0  0
   -7.2679   -1.9648    0.0000 N   0  0  0  0  0  0  0  0  0  0  0  0
   -6.2684   -3.0833    0.0000 C   0  0  0  0  0  0  0  0  0  0  0  0
   -7.0233   -4.3795    0.0000 C   0  0  0  0  0  0  0  0  0  0  0  0
   -8.4893   -4.0621    0.0000 C   0  0  0  0  0  0  0  0  0  0  0  0
   -8.6405   -2.5698    0.0000 C   0  0  0  0  0  0  0  0  0  0  0  0
  1  2  1  0
  2  3  1  0
  3  4  1  0
  4  5  1  0
  5  6  1  0
  6  7  1  0
  7  8  1  0
  7  9  1  0
  9 10  1  0
 10 11  1  0
 11 12  2  0
 12 13  1  0
 13 14  2  0
 14 15  1  0
 14 16  1  0
 16 17  1  0
 16 18  2  0
  2 19  1  0
 19 20  1  0
 20 21  1  0
 21 22  1  0
 22 23  1  0
 23 24  1  0
 24 25  1  0
 25 26  1  0
 26 27  1  0
 18 11  1  0
 27 23  1  0
M  END
>  <ChemBL_ID>  (559) 
CHEMBL108972

>  <Compound_Key>  (559) 
13

>  <Ki>  (559) 
115.0

>  <database>  (559) 
CHEMBL

>  <Assay_ChEMBL_ID>  (559) 
CHEMBL805743

>  <Document_ChEMBL_ID>  (559) 
CHEMBL1127340

$$$$

     RDKit          2D

 25 26  0  0  0  0  0  0  0  0999 V2000
   -3.6979   -3.0955    0.0000 C   0  0  0  0  0  0  0  0  0  0  0  0
   -2.9765   -1.7803    0.0000 N   0  0  0  0  0  0  0  0  0  0  0  0
   -1.4769   -1.7475    0.0000 C   0  0  0  0  0  0  0  0  0  0  0  0
   -0.7555   -0.4323    0.0000 C   0  0  0  0  0  0  0  0  0  0  0  0
    0.7441   -0.3995    0.0000 C   0  0  0  0  0  0  0  0  0  0  0  0
    1.4655    0.9157    0.0000 N   0  0  0  0  0  0  0  0  0  0  0  0
    0.6872    2.1980    0.0000 C   0  0  0  0  0  0  0  0  0  0  0  0
    2.9651    0.9485    0.0000 C   0  0  0  0  0  0  0  0  0  0  0  0
    3.7434   -0.3338    0.0000 C   0  0  0  0  0  0  0  0  0  0  0  0
    5.2430   -0.3010    0.0000 C   0  0  0  0  0  0  0  0  0  0  0  0
    6.0213   -1.5833    0.0000 C   0  0  0  0  0  0  0  0  0  0  0  0
    7.5210   -1.5504    0.0000 C   0  0  0  0  0  0  0  0  0  0  0  0
    8.2423   -0.2353    0.0000 C   0  0  0  0  0  0  0  0  0  0  0  0
    9.7420   -0.2024    0.0000 Cl  0  0  0  0  0  0  0  0  0  0  0  0
    7.4641    1.0470    0.0000 C   0  0  0  0  0  0  0  0  0  0  0  0
    8.1854    2.3622    0.0000 Cl  0  0  0  0  0  0  0  0  0  0  0  0
    5.9644    1.0142    0.0000 C   0  0  0  0  0  0  0  0  0  0  0  0
   -3.7548   -0.4980    0.0000 C   0  0  0  0  0  0  0  0  0  0  0  0
   -5.2544   -0.5309    0.0000 C   0  0  0  0  0  0  0  0  0  0  0  0
   -6.0327    0.7514    0.0000 C   0  0  0  0  0  0  0  0  0  0  0  0
   -7.5323    0.7186    0.0000 N   0  0  0  0  0  0  0  0  0  0  0  0
   -8.3872   -0.5140    0.0000 C   0  0  0  0  0  0  0  0  0  0  0  0
   -9.8236   -0.0818    0.0000 C   0  0  0  0  0  0  0  0  0  0  0  0
   -9.8565    1.4178    0.0000 C   0  0  0  0  0  0  0  0  0  0  0  0
   -8.4404    1.9125    0.0000 C   0  0  0  0  0  0  0  0  0  0  0  0
  1  2  1  0
  2  3  1  0
  3  4  1  0
  4  5  1  0
  5  6  1  0
  6  7  1  0
  6  8  1  0
  8  9  1  0
  9 10  1  0
 10 11  2  0
 11 12  1  0
 12 13  2  0
 13 14  1  0
 13 15  1  0
 15 16  1  0
 15 17  2  0
  2 18  1  0
 18 19  1  0
 19 20  1  0
 20 21  1  0
 21 22  1  0
 22 23  1  0
 23 24  1  0
 24 25  1  0
 17 10  1  0
 25 21  1  0
M  END
>  <ChemBL_ID>  (560) 
CHEMBL323476

>  <Compound_Key>  (560) 
11

>  <Ki>  (560) 
14.9

>  <database>  (560) 
CHEMBL

>  <Assay_ChEMBL_ID>  (560) 
CHEMBL805743

>  <Document_ChEMBL_ID>  (560) 
CHEMBL1127340

$$$$

     RDKit          2D

 23 24  0  0  0  0  0  0  0  0999 V2000
   -1.5571   -3.9536    0.0000 C   0  0  0  0  0  0  0  0  0  0  0  0
   -0.5709   -2.8234    0.0000 N   0  0  0  0  0  0  0  0  0  0  0  0
   -1.0565   -1.4042    0.0000 C   0  0  0  0  0  0  0  0  0  0  0  0
   -2.5284   -1.1151    0.0000 C   0  0  0  0  0  0  0  0  0  0  0  0
   -3.0140    0.3041    0.0000 C   0  0  0  0  0  0  0  0  0  0  0  0
   -4.4859    0.5931    0.0000 N   0  0  0  0  0  0  0  0  0  0  0  0
   -5.5849   -0.4277    0.0000 C   0  0  0  0  0  0  0  0  0  0  0  0
   -6.8954    0.3020    0.0000 C   0  0  0  0  0  0  0  0  0  0  0  0
   -6.6063    1.7739    0.0000 C   0  0  0  0  0  0  0  0  0  0  0  0
   -5.1172    1.9538    0.0000 C   0  0  0  0  0  0  0  0  0  0  0  0
    0.9010   -3.1124    0.0000 C   0  0  0  0  0  0  0  0  0  0  0  0
    1.8873   -1.9823    0.0000 C   0  0  0  0  0  0  0  0  0  0  0  0
    3.3592   -2.2713    0.0000 N   0  0  0  0  0  0  0  0  0  0  0  0
    3.8448   -3.6905    0.0000 C   0  0  0  0  0  0  0  0  0  0  0  0
    4.3455   -1.1412    0.0000 C   0  0  0  0  0  0  0  0  0  0  0  0
    3.8598    0.2781    0.0000 C   0  0  0  0  0  0  0  0  0  0  0  0
    4.8461    1.4082    0.0000 C   0  0  0  0  0  0  0  0  0  0  0  0
    4.3605    2.8274    0.0000 C   0  0  0  0  0  0  0  0  0  0  0  0
    2.8886    3.1165    0.0000 C   0  0  0  0  0  0  0  0  0  0  0  0
    2.4030    4.5357    0.0000 Cl  0  0  0  0  0  0  0  0  0  0  0  0
    1.9023    1.9863    0.0000 C   0  0  0  0  0  0  0  0  0  0  0  0
    0.4304    2.2754    0.0000 Cl  0  0  0  0  0  0  0  0  0  0  0  0
    2.3879    0.5671    0.0000 C   0  0  0  0  0  0  0  0  0  0  0  0
  1  2  1  0
  2  3  1  0
  3  4  1  0
  4  5  1  0
  5  6  1  0
  6  7  1  0
  7  8  1  0
  8  9  1  0
  9 10  1  0
  2 11  1  0
 11 12  1  0
 12 13  1  0
 13 14  1  0
 13 15  1  0
 15 16  1  0
 16 17  2  0
 17 18  1  0
 18 19  2  0
 19 20  1  0
 19 21  1  0
 21 22  1  0
 21 23  2  0
 10  6  1  0
 23 16  1  0
M  END
>  <ChemBL_ID>  (561) 
CHEMBL111331

>  <Compound_Key>  (561) 
8

>  <Ki>  (561) 
18.3

>  <database>  (561) 
SRSLDB

>  <Assay_ChEMBL_ID>  (561) 
CHEMBL805743

>  <Document_ChEMBL_ID>  (561) 
CHEMBL1127340

$$$$

     RDKit          2D

 21 22  0  0  0  0  0  0  0  0999 V2000
   -8.8075   -0.7156    0.0000 Cl  0  0  0  0  0  0  0  0  0  0  0  0
   -7.3986   -0.2008    0.0000 C   0  0  0  0  0  0  0  0  0  0  0  0
   -7.1400    1.2767    0.0000 C   0  0  0  0  0  0  0  0  0  0  0  0
   -5.7311    1.7915    0.0000 C   0  0  0  0  0  0  0  0  0  0  0  0
   -4.5808    0.8288    0.0000 C   0  0  0  0  0  0  0  0  0  0  0  0
   -3.1719    1.3436    0.0000 C   0  0  0  0  0  0  0  0  0  0  0  0
   -2.0216    0.3809    0.0000 C   0  0  0  0  0  0  0  0  0  0  0  0
   -0.6127    0.8957    0.0000 N   0  0  0  0  0  0  0  0  0  0  0  0
    0.5376   -0.0670    0.0000 C   0  0  0  0  0  0  0  0  0  0  0  0
    1.9464    0.4478    0.0000 C   0  0  0  0  0  0  0  0  0  0  0  0
    3.0967   -0.5149    0.0000 N   0  0  0  0  0  0  0  0  0  0  0  0
    4.5056   -0.0001    0.0000 C   0  0  0  0  0  0  0  0  0  0  0  0
    5.6559   -0.9628    0.0000 C   0  0  0  0  0  0  0  0  0  0  0  0
    7.0648   -0.4480    0.0000 N   0  0  0  0  0  0  0  0  0  0  0  0
    7.4764    0.9944    0.0000 C   0  0  0  0  0  0  0  0  0  0  0  0
    8.9754    1.0486    0.0000 C   0  0  0  0  0  0  0  0  0  0  0  0
    9.4903   -0.3603    0.0000 C   0  0  0  0  0  0  0  0  0  0  0  0
    8.3094   -1.2852    0.0000 C   0  0  0  0  0  0  0  0  0  0  0  0
   -4.8394   -0.6487    0.0000 C   0  0  0  0  0  0  0  0  0  0  0  0
   -6.2483   -1.1635    0.0000 C   0  0  0  0  0  0  0  0  0  0  0  0
   -6.5069   -2.6411    0.0000 Cl  0  0  0  0  0  0  0  0  0  0  0  0
  1  2  1  0
  2  3  2  0
  3  4  1  0
  4  5  2  0
  5  6  1  0
  6  7  1  0
  7  8  1  0
  8  9  1  0
  9 10  1  0
 10 11  1  0
 11 12  1  0
 12 13  1  0
 13 14  1  0
 14 15  1  0
 15 16  1  0
 16 17  1  0
 17 18  1  0
  5 19  1  0
 19 20  2  0
 20 21  1  0
 20  2  1  0
 18 14  1  0
M  END
>  <ChemBL_ID>  (562) 
CHEMBL107485

>  <Compound_Key>  (562) 
17

>  <Ki>  (562) 
111.0

>  <database>  (562) 
CHEMBL

>  <Assay_ChEMBL_ID>  (562) 
CHEMBL805743

>  <Document_ChEMBL_ID>  (562) 
CHEMBL1127340

$$$$

     RDKit          2D

 15 16  0  0  0  0  0  0  0  0999 V2000
   -5.3700    0.0487    0.0000 Cl  0  0  0  0  0  0  0  0  0  0  0  0
   -3.8808    0.2287    0.0000 C   0  0  0  0  0  0  0  0  0  0  0  0
   -3.2921    1.6084    0.0000 C   0  0  0  0  0  0  0  0  0  0  0  0
   -1.8030    1.7884    0.0000 C   0  0  0  0  0  0  0  0  0  0  0  0
   -0.9025    0.5888    0.0000 C   0  0  0  0  0  0  0  0  0  0  0  0
    0.5866    0.7688    0.0000 C   0  0  0  0  0  0  0  0  0  0  0  0
    1.4871   -0.4309    0.0000 C   0  0  0  0  0  0  0  0  0  0  0  0
    2.9763   -0.2508    0.0000 N   0  0  0  0  0  0  0  0  0  0  0  0
    3.7060    1.0597    0.0000 C   0  0  0  0  0  0  0  0  0  0  0  0
    5.1779    0.7708    0.0000 C   0  0  0  0  0  0  0  0  0  0  0  0
    5.3579   -0.7184    0.0000 C   0  0  0  0  0  0  0  0  0  0  0  0
    3.9972   -1.3498    0.0000 C   0  0  0  0  0  0  0  0  0  0  0  0
   -1.4912   -0.7909    0.0000 C   0  0  0  0  0  0  0  0  0  0  0  0
   -2.9803   -0.9709    0.0000 C   0  0  0  0  0  0  0  0  0  0  0  0
   -3.5690   -2.3506    0.0000 Cl  0  0  0  0  0  0  0  0  0  0  0  0
  1  2  1  0
  2  3  2  0
  3  4  1  0
  4  5  2  0
  5  6  1  0
  6  7  1  0
  7  8  1  0
  8  9  1  0
  9 10  1  0
 10 11  1  0
 11 12  1  0
  5 13  1  0
 13 14  2  0
 14 15  1  0
 14  2  1  0
 12  8  1  0
M  END
>  <ChemBL_ID>  (563) 
CHEMBL543632

>  <Compound_Key>  (563) 
4

>  <Ki>  (563) 
7705.0

>  <database>  (563) 
CHEMBL

>  <Assay_ChEMBL_ID>  (563) 
CHEMBL805743

>  <Document_ChEMBL_ID>  (563) 
CHEMBL1127340

$$$$

     RDKit          2D

 17 17  0  0  0  0  0  0  0  0999 V2000
   -9.2118    0.0594    0.0000 N   0  0  0  0  0  0  0  0  0  0  0  0
   -7.8430    0.6727    0.0000 C   0  0  0  0  0  0  0  0  0  0  0  0
   -6.6274   -0.2061    0.0000 C   0  0  0  0  0  0  0  0  0  0  0  0
   -5.2585    0.4072    0.0000 N   0  0  0  0  0  0  0  0  0  0  0  0
   -4.0429   -0.4716    0.0000 C   0  0  0  0  0  0  0  0  0  0  0  0
   -2.6740    0.1417    0.0000 C   0  0  0  0  0  0  0  0  0  0  0  0
   -1.4584   -0.7372    0.0000 N   0  0  0  0  0  0  0  0  0  0  0  0
   -0.0895   -0.1239    0.0000 C   0  0  0  0  0  0  0  0  0  0  0  0
    1.1260   -1.0027    0.0000 C   0  0  0  0  0  0  0  0  0  0  0  0
    2.4949   -0.3894    0.0000 C   0  0  0  0  0  0  0  0  0  0  0  0
    2.6482    1.1028    0.0000 C   0  0  0  0  0  0  0  0  0  0  0  0
    4.0171    1.7161    0.0000 C   0  0  0  0  0  0  0  0  0  0  0  0
    5.2327    0.8373    0.0000 C   0  0  0  0  0  0  0  0  0  0  0  0
    6.6016    1.4506    0.0000 Cl  0  0  0  0  0  0  0  0  0  0  0  0
    5.0794   -0.6549    0.0000 C   0  0  0  0  0  0  0  0  0  0  0  0
    6.2950   -1.5337    0.0000 Cl  0  0  0  0  0  0  0  0  0  0  0  0
    3.7105   -1.2682    0.0000 C   0  0  0  0  0  0  0  0  0  0  0  0
  1  2  1  0
  2  3  1  0
  3  4  1  0
  4  5  1  0
  5  6  1  0
  6  7  1  0
  7  8  1  0
  8  9  1  0
  9 10  1  0
 10 11  2  0
 11 12  1  0
 12 13  2  0
 13 14  1  0
 13 15  1  0
 15 16  1  0
 15 17  2  0
 17 10  1  0
M  END
>  <ChemBL_ID>  (564) 
CHEMBL107720

>  <Compound_Key>  (564) 
16

>  <Ki>  (564) 
537.0

>  <database>  (564) 
CHEMBL

>  <Assay_ChEMBL_ID>  (564) 
CHEMBL805743

>  <Document_ChEMBL_ID>  (564) 
CHEMBL1127340

$$$$

     RDKit          2D

 23 24  0  0  0  0  0  0  0  0999 V2000
    0.5683    4.3998    0.0000 C   0  0  0  0  0  0  0  0  0  0  0  0
    0.5095    2.9009    0.0000 N   0  0  0  0  0  0  0  0  0  0  0  0
    1.7781    2.1006    0.0000 C   0  0  0  0  0  0  0  0  0  0  0  0
    1.7193    0.6017    0.0000 C   0  0  0  0  0  0  0  0  0  0  0  0
    2.9879   -0.1986    0.0000 C   0  0  0  0  0  0  0  0  0  0  0  0
    2.9291   -1.6975    0.0000 C   0  0  0  0  0  0  0  0  0  0  0  0
    4.1978   -2.4978    0.0000 C   0  0  0  0  0  0  0  0  0  0  0  0
    5.5252   -1.7993    0.0000 C   0  0  0  0  0  0  0  0  0  0  0  0
    6.7938   -2.5997    0.0000 Cl  0  0  0  0  0  0  0  0  0  0  0  0
    5.5840   -0.3005    0.0000 C   0  0  0  0  0  0  0  0  0  0  0  0
    6.9115    0.3980    0.0000 Cl  0  0  0  0  0  0  0  0  0  0  0  0
    4.3154    0.4999    0.0000 C   0  0  0  0  0  0  0  0  0  0  0  0
   -0.8179    2.2025    0.0000 C   0  0  0  0  0  0  0  0  0  0  0  0
   -2.0866    3.0028    0.0000 C   0  0  0  0  0  0  0  0  0  0  0  0
   -3.4140    2.3043    0.0000 N   0  0  0  0  0  0  0  0  0  0  0  0
   -4.6827    3.1047    0.0000 C   0  0  0  0  0  0  0  0  0  0  0  0
   -3.4728    0.8055    0.0000 C   0  0  0  0  0  0  0  0  0  0  0  0
   -4.8003    0.1070    0.0000 C   0  0  0  0  0  0  0  0  0  0  0  0
   -4.8591   -1.3919    0.0000 N   0  0  0  0  0  0  0  0  0  0  0  0
   -3.6811   -2.3204    0.0000 C   0  0  0  0  0  0  0  0  0  0  0  0
   -4.2002   -3.7277    0.0000 C   0  0  0  0  0  0  0  0  0  0  0  0
   -5.6990   -3.6689    0.0000 C   0  0  0  0  0  0  0  0  0  0  0  0
   -6.1063   -2.2253    0.0000 C   0  0  0  0  0  0  0  0  0  0  0  0
  1  2  1  0
  2  3  1  0
  3  4  1  0
  4  5  1  0
  5  6  2  0
  6  7  1  0
  7  8  2  0
  8  9  1  0
  8 10  1  0
 10 11  1  0
 10 12  2  0
  2 13  1  0
 13 14  1  0
 14 15  1  0
 15 16  1  0
 15 17  1  0
 17 18  1  0
 18 19  1  0
 19 20  1  0
 20 21  1  0
 21 22  1  0
 22 23  1  0
 12  5  1  0
 23 19  1  0
M  END
>  <ChemBL_ID>  (565) 
CHEMBL324620

>  <Compound_Key>  (565) 
5

>  <Ki>  (565) 
14.4

>  <database>  (565) 
CHEMBL

>  <Assay_ChEMBL_ID>  (565) 
CHEMBL805743

>  <Document_ChEMBL_ID>  (565) 
CHEMBL1127340

$$$$

     RDKit          2D

 26 27  0  0  0  0  0  0  0  0999 V2000
   -2.9486   -3.9444    0.0000 C   0  0  0  0  0  0  0  0  0  0  0  0
   -2.3809   -2.5560    0.0000 N   0  0  0  0  0  0  0  0  0  0  0  0
   -3.2994   -1.3701    0.0000 C   0  0  0  0  0  0  0  0  0  0  0  0
   -4.7857   -1.5727    0.0000 C   0  0  0  0  0  0  0  0  0  0  0  0
   -5.7042   -0.3868    0.0000 C   0  0  0  0  0  0  0  0  0  0  0  0
   -7.1905   -0.5894    0.0000 C   0  0  0  0  0  0  0  0  0  0  0  0
   -8.1091    0.5965    0.0000 N   0  0  0  0  0  0  0  0  0  0  0  0
   -9.6084    0.5504    0.0000 C   0  0  0  0  0  0  0  0  0  0  0  0
  -10.1155    1.9620    0.0000 C   0  0  0  0  0  0  0  0  0  0  0  0
   -8.9297    2.8806    0.0000 C   0  0  0  0  0  0  0  0  0  0  0  0
   -7.6896    2.0366    0.0000 C   0  0  0  0  0  0  0  0  0  0  0  0
   -0.8946   -2.3534    0.0000 C   0  0  0  0  0  0  0  0  0  0  0  0
   -0.3269   -0.9650    0.0000 C   0  0  0  0  0  0  0  0  0  0  0  0
    1.1593   -0.7624    0.0000 C   0  0  0  0  0  0  0  0  0  0  0  0
    1.7270    0.6260    0.0000 N   0  0  0  0  0  0  0  0  0  0  0  0
    0.8085    1.8119    0.0000 C   0  0  0  0  0  0  0  0  0  0  0  0
    3.2133    0.8286    0.0000 C   0  0  0  0  0  0  0  0  0  0  0  0
    4.1319   -0.3573    0.0000 C   0  0  0  0  0  0  0  0  0  0  0  0
    5.6181   -0.1547    0.0000 C   0  0  0  0  0  0  0  0  0  0  0  0
    6.5367   -1.3406    0.0000 C   0  0  0  0  0  0  0  0  0  0  0  0
    8.0229   -1.1380    0.0000 C   0  0  0  0  0  0  0  0  0  0  0  0
    8.5906    0.2504    0.0000 C   0  0  0  0  0  0  0  0  0  0  0  0
   10.0769    0.4530    0.0000 Cl  0  0  0  0  0  0  0  0  0  0  0  0
    7.6721    1.4363    0.0000 C   0  0  0  0  0  0  0  0  0  0  0  0
    8.2398    2.8247    0.0000 Cl  0  0  0  0  0  0  0  0  0  0  0  0
    6.1858    1.2337    0.0000 C   0  0  0  0  0  0  0  0  0  0  0  0
  1  2  1  0
  2  3  1  0
  3  4  1  0
  4  5  1  0
  5  6  1  0
  6  7  1  0
  7  8  1  0
  8  9  1  0
  9 10  1  0
 10 11  1  0
  2 12  1  0
 12 13  1  0
 13 14  1  0
 14 15  1  0
 15 16  1  0
 15 17  1  0
 17 18  1  0
 18 19  1  0
 19 20  2  0
 20 21  1  0
 21 22  2  0
 22 23  1  0
 22 24  1  0
 24 25  1  0
 24 26  2  0
 11  7  1  0
 26 19  1  0
M  END
>  <ChemBL_ID>  (566) 
CHEMBL107717

>  <Compound_Key>  (566) 
12

>  <Ki>  (566) 
152.0

>  <database>  (566) 
CHEMBL

>  <Assay_ChEMBL_ID>  (566) 
CHEMBL805743

>  <Document_ChEMBL_ID>  (566) 
CHEMBL1127340

$$$$

     RDKit          2D

 14 14  0  0  0  0  0  0  0  0999 V2000
   -6.9339    0.6501    0.0000 N   0  0  0  0  0  0  0  0  0  0  0  0
   -5.7448   -0.2643    0.0000 C   0  0  0  0  0  0  0  0  0  0  0  0
   -4.3584    0.3083    0.0000 C   0  0  0  0  0  0  0  0  0  0  0  0
   -3.1693   -0.6061    0.0000 N   0  0  0  0  0  0  0  0  0  0  0  0
   -1.7829   -0.0336    0.0000 C   0  0  0  0  0  0  0  0  0  0  0  0
   -0.5938   -0.9480    0.0000 C   0  0  0  0  0  0  0  0  0  0  0  0
    0.7926   -0.3754    0.0000 C   0  0  0  0  0  0  0  0  0  0  0  0
    0.9900    1.1116    0.0000 C   0  0  0  0  0  0  0  0  0  0  0  0
    2.3764    1.6841    0.0000 C   0  0  0  0  0  0  0  0  0  0  0  0
    3.5654    0.7697    0.0000 C   0  0  0  0  0  0  0  0  0  0  0  0
    4.9519    1.3423    0.0000 Cl  0  0  0  0  0  0  0  0  0  0  0  0
    3.3681   -0.7172    0.0000 C   0  0  0  0  0  0  0  0  0  0  0  0
    4.5572   -1.6316    0.0000 Cl  0  0  0  0  0  0  0  0  0  0  0  0
    1.9817   -1.2898    0.0000 C   0  0  0  0  0  0  0  0  0  0  0  0
  1  2  1  0
  2  3  1  0
  3  4  1  0
  4  5  1  0
  5  6  1  0
  6  7  1  0
  7  8  2  0
  8  9  1  0
  9 10  2  0
 10 11  1  0
 10 12  1  0
 12 13  1  0
 12 14  2  0
 14  7  1  0
M  END
>  <ChemBL_ID>  (567) 
CHEMBL325320

>  <Compound_Key>  (567) 
15

>  <Ki>  (567) 
2364.0

>  <database>  (567) 
CHEMBL

>  <Assay_ChEMBL_ID>  (567) 
CHEMBL805743

>  <Document_ChEMBL_ID>  (567) 
CHEMBL1127340

$$$$

     RDKit          2D

 22 23  0  0  0  0  0  0  0  0999 V2000
   -2.0422   -4.1838    0.0000 C   0  0  0  0  0  0  0  0  0  0  0  0
   -1.1052   -3.0124    0.0000 N   0  0  0  0  0  0  0  0  0  0  0  0
    0.3778   -3.2382    0.0000 C   0  0  0  0  0  0  0  0  0  0  0  0
    1.3148   -2.0669    0.0000 C   0  0  0  0  0  0  0  0  0  0  0  0
    2.7977   -2.2927    0.0000 N   0  0  0  0  0  0  0  0  0  0  0  0
    3.3436   -3.6898    0.0000 C   0  0  0  0  0  0  0  0  0  0  0  0
    3.7347   -1.1213    0.0000 C   0  0  0  0  0  0  0  0  0  0  0  0
    3.1888    0.2758    0.0000 C   0  0  0  0  0  0  0  0  0  0  0  0
    4.1258    1.4471    0.0000 C   0  0  0  0  0  0  0  0  0  0  0  0
    3.5799    2.8443    0.0000 C   0  0  0  0  0  0  0  0  0  0  0  0
    2.0969    3.0701    0.0000 C   0  0  0  0  0  0  0  0  0  0  0  0
    1.5510    4.4672    0.0000 Cl  0  0  0  0  0  0  0  0  0  0  0  0
    1.1599    1.8987    0.0000 C   0  0  0  0  0  0  0  0  0  0  0  0
   -0.3230    2.1245    0.0000 Cl  0  0  0  0  0  0  0  0  0  0  0  0
    1.7058    0.5016    0.0000 C   0  0  0  0  0  0  0  0  0  0  0  0
   -1.6511   -1.6153    0.0000 C   0  0  0  0  0  0  0  0  0  0  0  0
   -3.1340   -1.3895    0.0000 C   0  0  0  0  0  0  0  0  0  0  0  0
   -3.6799    0.0076    0.0000 N   0  0  0  0  0  0  0  0  0  0  0  0
   -5.1311    0.3872    0.0000 C   0  0  0  0  0  0  0  0  0  0  0  0
   -5.2185    1.8847    0.0000 C   0  0  0  0  0  0  0  0  0  0  0  0
   -3.8214    2.4306    0.0000 C   0  0  0  0  0  0  0  0  0  0  0  0
   -2.8704    1.2705    0.0000 C   0  0  0  0  0  0  0  0  0  0  0  0
  1  2  1  0
  2  3  1  0
  3  4  1  0
  4  5  1  0
  5  6  1  0
  5  7  1  0
  7  8  1  0
  8  9  2  0
  9 10  1  0
 10 11  2  0
 11 12  1  0
 11 13  1  0
 13 14  1  0
 13 15  2  0
  2 16  1  0
 16 17  1  0
 17 18  1  0
 18 19  1  0
 19 20  1  0
 20 21  1  0
 21 22  1  0
 15  8  1  0
 22 18  1  0
M  END
>  <ChemBL_ID>  (568) 
CHEMBL109026

>  <Compound_Key>  (568) 
10

>  <Ki>  (568) 
12.1

>  <database>  (568) 
CHEMBL

>  <Assay_ChEMBL_ID>  (568) 
CHEMBL805743

>  <Document_ChEMBL_ID>  (568) 
CHEMBL1127340

$$$$

     RDKit          2D

 23 24  0  0  0  0  0  0  0  0999 V2000
   -2.4784    3.3243    0.0000 C   0  0  0  0  0  0  0  0  0  0  0  0
   -2.1460    1.8616    0.0000 N   0  0  0  0  0  0  0  0  0  0  0  0
   -0.7130    1.4181    0.0000 C   0  0  0  0  0  0  0  0  0  0  0  0
   -0.3806   -0.0446    0.0000 C   0  0  0  0  0  0  0  0  0  0  0  0
    1.0523   -0.4881    0.0000 C   0  0  0  0  0  0  0  0  0  0  0  0
    1.3847   -1.9508    0.0000 N   0  0  0  0  0  0  0  0  0  0  0  0
    0.2842   -2.9700    0.0000 C   0  0  0  0  0  0  0  0  0  0  0  0
    2.8177   -2.3942    0.0000 C   0  0  0  0  0  0  0  0  0  0  0  0
    3.9182   -1.3750    0.0000 C   0  0  0  0  0  0  0  0  0  0  0  0
    5.3511   -1.8185    0.0000 C   0  0  0  0  0  0  0  0  0  0  0  0
    6.4517   -0.7993    0.0000 C   0  0  0  0  0  0  0  0  0  0  0  0
    6.1193    0.6634    0.0000 C   0  0  0  0  0  0  0  0  0  0  0  0
    7.2198    1.6827    0.0000 Cl  0  0  0  0  0  0  0  0  0  0  0  0
    4.6863    1.1069    0.0000 C   0  0  0  0  0  0  0  0  0  0  0  0
    4.3539    2.5696    0.0000 Cl  0  0  0  0  0  0  0  0  0  0  0  0
    3.5858    0.0877    0.0000 C   0  0  0  0  0  0  0  0  0  0  0  0
   -3.2465    0.8424    0.0000 C   0  0  0  0  0  0  0  0  0  0  0  0
   -4.6795    1.2858    0.0000 C   0  0  0  0  0  0  0  0  0  0  0  0
   -5.7800    0.2666    0.0000 N   0  0  0  0  0  0  0  0  0  0  0  0
   -5.6023   -1.2228    0.0000 C   0  0  0  0  0  0  0  0  0  0  0  0
   -6.9639   -1.8521    0.0000 C   0  0  0  0  0  0  0  0  0  0  0  0
   -7.9832   -0.7516    0.0000 C   0  0  0  0  0  0  0  0  0  0  0  0
   -7.2515    0.5579    0.0000 C   0  0  0  0  0  0  0  0  0  0  0  0
  1  2  1  0
  2  3  1  0
  3  4  1  0
  4  5  1  0
  5  6  1  0
  6  7  1  0
  6  8  1  0
  8  9  1  0
  9 10  2  0
 10 11  1  0
 11 12  2  0
 12 13  1  0
 12 14  1  0
 14 15  1  0
 14 16  2  0
  2 17  1  0
 17 18  1  0
 18 19  1  0
 19 20  1  0
 20 21  1  0
 21 22  1  0
 22 23  1  0
 16  9  1  0
 23 19  1  0
M  END
>  <ChemBL_ID>  (569) 
CHEMBL107870

>  <Compound_Key>  (569) 
9

>  <Ki>  (569) 
52.6

>  <database>  (569) 
CHEMBL

>  <Assay_ChEMBL_ID>  (569) 
CHEMBL805743

>  <Document_ChEMBL_ID>  (569) 
CHEMBL1127340

$$$$

     RDKit          2D

 21 22  0  0  0  0  0  0  0  0999 V2000
   -3.5152    4.3353    0.0000 N   0  0  0  0  0  0  0  0  0  0  0  0
   -2.9583    2.9425    0.0000 C   0  0  0  0  0  0  0  0  0  0  0  0
   -1.4737    2.7284    0.0000 C   0  0  0  0  0  0  0  0  0  0  0  0
   -0.9168    1.3356    0.0000 N   0  0  0  0  0  0  0  0  0  0  0  0
    0.5678    1.1214    0.0000 C   0  0  0  0  0  0  0  0  0  0  0  0
    1.1247   -0.2714    0.0000 C   0  0  0  0  0  0  0  0  0  0  0  0
    2.6093   -0.4855    0.0000 C   0  0  0  0  0  0  0  0  0  0  0  0
    3.1662   -1.8783    0.0000 C   0  0  0  0  0  0  0  0  0  0  0  0
    4.6508   -2.0925    0.0000 C   0  0  0  0  0  0  0  0  0  0  0  0
    5.5786   -0.9138    0.0000 C   0  0  0  0  0  0  0  0  0  0  0  0
    7.0632   -1.1280    0.0000 Cl  0  0  0  0  0  0  0  0  0  0  0  0
    5.0217    0.4790    0.0000 C   0  0  0  0  0  0  0  0  0  0  0  0
    5.9495    1.6576    0.0000 Cl  0  0  0  0  0  0  0  0  0  0  0  0
    3.5371    0.6931    0.0000 C   0  0  0  0  0  0  0  0  0  0  0  0
   -1.8446    0.1569    0.0000 C   0  0  0  0  0  0  0  0  0  0  0  0
   -3.3292    0.3710    0.0000 C   0  0  0  0  0  0  0  0  0  0  0  0
   -4.2570   -0.8076    0.0000 N   0  0  0  0  0  0  0  0  0  0  0  0
   -3.8488   -2.2510    0.0000 C   0  0  0  0  0  0  0  0  0  0  0  0
   -5.0954   -3.0853    0.0000 C   0  0  0  0  0  0  0  0  0  0  0  0
   -6.2740   -2.1575    0.0000 C   0  0  0  0  0  0  0  0  0  0  0  0
   -5.7559   -0.7498    0.0000 C   0  0  0  0  0  0  0  0  0  0  0  0
  1  2  1  0
  2  3  1  0
  3  4  1  0
  4  5  1  0
  5  6  1  0
  6  7  1  0
  7  8  2  0
  8  9  1  0
  9 10  2  0
 10 11  1  0
 10 12  1  0
 12 13  1  0
 12 14  2  0
  4 15  1  0
 15 16  1  0
 16 17  1  0
 17 18  1  0
 18 19  1  0
 19 20  1  0
 20 21  1  0
 14  7  1  0
 21 17  1  0
M  END
>  <ChemBL_ID>  (570) 
CHEMBL321702

>  <Compound_Key>  (570) 
14

>  <Ki>  (570) 
135.0

>  <database>  (570) 
CHEMBL

>  <Assay_ChEMBL_ID>  (570) 
CHEMBL805743

>  <Document_ChEMBL_ID>  (570) 
CHEMBL1127340

$$$$

     RDKit          2D

 24 26  0  0  0  0  0  0  0  0999 V2000
    1.7804    0.1475    0.0000 O   0  0  0  0  0  0  0  0  0  0  0  0
    2.2665   -1.2715    0.0000 C   0  0  0  0  0  0  0  0  0  0  0  0
    3.7385   -1.5600    0.0000 C   0  0  0  0  0  0  0  0  0  0  0  0
    4.7243   -0.4294    0.0000 C   0  0  0  0  0  0  0  0  0  0  0  0
    6.1963   -0.7179    0.0000 C   0  0  0  0  0  0  0  0  0  0  0  0
    7.1822    0.4126    0.0000 C   0  0  0  0  0  0  0  0  0  0  0  0
    6.6960    1.8317    0.0000 C   0  0  0  0  0  0  0  0  0  0  0  0
    5.2240    2.1201    0.0000 C   0  0  0  0  0  0  0  0  0  0  0  0
    4.7378    3.5392    0.0000 F   0  0  0  0  0  0  0  0  0  0  0  0
    4.2382    0.9896    0.0000 C   0  0  0  0  0  0  0  0  0  0  0  0
    1.2807   -2.4021    0.0000 N   0  0  0  0  0  0  0  0  0  0  0  0
   -0.1913   -2.1136    0.0000 C   0  0  0  0  0  0  0  0  0  0  0  0
   -0.6775   -0.6946    0.0000 C   0  0  0  0  0  0  0  0  0  0  0  0
   -2.1495   -0.4061    0.0000 C   0  0  0  0  0  0  0  0  0  0  0  0
   -3.1353   -1.5367    0.0000 N   0  0  0  0  0  0  0  0  0  0  0  0
   -4.6073   -1.2482    0.0000 C   0  0  0  0  0  0  0  0  0  0  0  0
   -5.0935    0.1709    0.0000 C   0  0  0  0  0  0  0  0  0  0  0  0
   -4.1076    1.3014    0.0000 C   0  0  0  0  0  0  0  0  0  0  0  0
   -4.5938    2.7204    0.0000 C   0  0  0  0  0  0  0  0  0  0  0  0
   -6.0658    3.0089    0.0000 C   0  0  0  0  0  0  0  0  0  0  0  0
   -7.0516    1.8784    0.0000 C   0  0  0  0  0  0  0  0  0  0  0  0
   -6.5655    0.4593    0.0000 C   0  0  0  0  0  0  0  0  0  0  0  0
   -2.6491   -2.9557    0.0000 C   0  0  0  0  0  0  0  0  0  0  0  0
   -1.1771   -3.2442    0.0000 C   0  0  0  0  0  0  0  0  0  0  0  0
  1  2  2  0
  2  3  1  0
  3  4  1  0
  4  5  2  0
  5  6  1  0
  6  7  2  0
  7  8  1  0
  8  9  1  0
  8 10  2  0
  2 11  1  0
 11 12  1  0
 12 13  1  0
 13 14  1  0
 14 15  1  0
 15 16  1  0
 16 17  1  0
 17 18  2  0
 18 19  1  0
 19 20  2  0
 20 21  1  0
 21 22  2  0
 15 23  1  0
 23 24  1  0
 10  4  1  0
 24 12  1  0
 22 17  1  0
M  END
>  <ChemBL_ID>  (571) 
CHEMBL306768

>  <Compound_Key>  (571) 
12

>  <Ki>  (571) 
153.0

>  <database>  (571) 
CHEMBL

>  <Assay_ChEMBL_ID>  (571) 
CHEMBL805746

>  <Document_ChEMBL_ID>  (571) 
CHEMBL1131000

$$$$

     RDKit          2D

 25 27  0  0  0  0  0  0  0  0999 V2000
   -8.8030   -2.0932    0.0000 C   0  0  0  0  0  0  0  0  0  0  0  0
   -7.3498   -2.4648    0.0000 S   0  0  0  0  0  0  0  0  0  0  0  0
   -6.3013   -1.3921    0.0000 C   0  0  0  0  0  0  0  0  0  0  0  0
   -6.7061    0.0523    0.0000 C   0  0  0  0  0  0  0  0  0  0  0  0
   -5.6577    1.1250    0.0000 C   0  0  0  0  0  0  0  0  0  0  0  0
   -4.2044    0.7534    0.0000 C   0  0  0  0  0  0  0  0  0  0  0  0
   -3.1560    1.8261    0.0000 C   0  0  0  0  0  0  0  0  0  0  0  0
   -1.7027    1.4545    0.0000 C   0  0  0  0  0  0  0  0  0  0  0  0
   -1.2980    0.0101    0.0000 O   0  0  0  0  0  0  0  0  0  0  0  0
   -0.6543    2.5272    0.0000 N   0  0  0  0  0  0  0  0  0  0  0  0
    0.7990    2.1556    0.0000 C   0  0  0  0  0  0  0  0  0  0  0  0
    1.2037    0.7112    0.0000 C   0  0  0  0  0  0  0  0  0  0  0  0
    2.6570    0.3396    0.0000 C   0  0  0  0  0  0  0  0  0  0  0  0
    3.7054    1.4123    0.0000 N   0  0  0  0  0  0  0  0  0  0  0  0
    5.1587    1.0407    0.0000 C   0  0  0  0  0  0  0  0  0  0  0  0
    5.5634   -0.4037    0.0000 C   0  0  0  0  0  0  0  0  0  0  0  0
    4.5150   -1.4764    0.0000 C   0  0  0  0  0  0  0  0  0  0  0  0
    4.9198   -2.9207    0.0000 C   0  0  0  0  0  0  0  0  0  0  0  0
    6.3730   -3.2924    0.0000 C   0  0  0  0  0  0  0  0  0  0  0  0
    7.4215   -2.2196    0.0000 C   0  0  0  0  0  0  0  0  0  0  0  0
    7.0167   -0.7753    0.0000 C   0  0  0  0  0  0  0  0  0  0  0  0
    3.3006    2.8567    0.0000 C   0  0  0  0  0  0  0  0  0  0  0  0
    1.8474    3.2283    0.0000 C   0  0  0  0  0  0  0  0  0  0  0  0
   -3.7997   -0.6910    0.0000 C   0  0  0  0  0  0  0  0  0  0  0  0
   -4.8481   -1.7637    0.0000 C   0  0  0  0  0  0  0  0  0  0  0  0
  1  2  1  0
  2  3  1  0
  3  4  2  0
  4  5  1  0
  5  6  2  0
  6  7  1  0
  7  8  1  0
  8  9  2  0
  8 10  1  0
 10 11  1  0
 11 12  1  0
 12 13  1  0
 13 14  1  0
 14 15  1  0
 15 16  1  0
 16 17  2  0
 17 18  1  0
 18 19  2  0
 19 20  1  0
 20 21  2  0
 14 22  1  0
 22 23  1  0
  6 24  1  0
 24 25  2  0
 25  3  1  0
 23 11  1  0
 21 16  1  0
M  END
>  <ChemBL_ID>  (572) 
CHEMBL75816

>  <Compound_Key>  (572) 
41

>  <Ki>  (572) 
83.3

>  <database>  (572) 
CHEMBL

>  <Assay_ChEMBL_ID>  (572) 
CHEMBL805746

>  <Document_ChEMBL_ID>  (572) 
CHEMBL1131000

$$$$

     RDKit          2D

 24 26  0  0  0  0  0  0  0  0999 V2000
    1.6599    0.1489    0.0000 O   0  0  0  0  0  0  0  0  0  0  0  0
    2.1267   -1.2766    0.0000 C   0  0  0  0  0  0  0  0  0  0  0  0
    3.5946   -1.5851    0.0000 C   0  0  0  0  0  0  0  0  0  0  0  0
    4.5957   -0.4681    0.0000 C   0  0  0  0  0  0  0  0  0  0  0  0
    6.0637   -0.7766    0.0000 C   0  0  0  0  0  0  0  0  0  0  0  0
    7.0648    0.3405    0.0000 C   0  0  0  0  0  0  0  0  0  0  0  0
    6.5980    1.7660    0.0000 C   0  0  0  0  0  0  0  0  0  0  0  0
    7.5991    2.8830    0.0000 F   0  0  0  0  0  0  0  0  0  0  0  0
    5.1301    2.0745    0.0000 C   0  0  0  0  0  0  0  0  0  0  0  0
    4.1289    0.9575    0.0000 C   0  0  0  0  0  0  0  0  0  0  0  0
    1.1255   -2.3936    0.0000 N   0  0  0  0  0  0  0  0  0  0  0  0
   -0.3424   -2.0851    0.0000 C   0  0  0  0  0  0  0  0  0  0  0  0
   -0.8092   -0.6596    0.0000 C   0  0  0  0  0  0  0  0  0  0  0  0
   -2.2771   -0.3511    0.0000 C   0  0  0  0  0  0  0  0  0  0  0  0
   -3.2783   -1.4681    0.0000 N   0  0  0  0  0  0  0  0  0  0  0  0
   -4.7462   -1.1596    0.0000 C   0  0  0  0  0  0  0  0  0  0  0  0
   -5.2130    0.2659    0.0000 C   0  0  0  0  0  0  0  0  0  0  0  0
   -4.2119    1.3829    0.0000 C   0  0  0  0  0  0  0  0  0  0  0  0
   -4.6787    2.8085    0.0000 C   0  0  0  0  0  0  0  0  0  0  0  0
   -6.1466    3.1170    0.0000 C   0  0  0  0  0  0  0  0  0  0  0  0
   -7.1477    2.0000    0.0000 C   0  0  0  0  0  0  0  0  0  0  0  0
   -6.6809    0.5744    0.0000 C   0  0  0  0  0  0  0  0  0  0  0  0
   -2.8115   -2.8936    0.0000 C   0  0  0  0  0  0  0  0  0  0  0  0
   -1.3435   -3.2021    0.0000 C   0  0  0  0  0  0  0  0  0  0  0  0
  1  2  2  0
  2  3  1  0
  3  4  1  0
  4  5  2  0
  5  6  1  0
  6  7  2  0
  7  8  1  0
  7  9  1  0
  9 10  2  0
  2 11  1  0
 11 12  1  0
 12 13  1  0
 13 14  1  0
 14 15  1  0
 15 16  1  0
 16 17  1  0
 17 18  2  0
 18 19  1  0
 19 20  2  0
 20 21  1  0
 21 22  2  0
 15 23  1  0
 23 24  1  0
 10  4  1  0
 24 12  1  0
 22 17  1  0
M  END
>  <ChemBL_ID>  (573) 
CHEMBL310499

>  <Compound_Key>  (573) 
13

>  <Ki>  (573) 
69.2

>  <database>  (573) 
CHEMBL

>  <Assay_ChEMBL_ID>  (573) 
CHEMBL805746

>  <Document_ChEMBL_ID>  (573) 
CHEMBL1131000

$$$$

     RDKit          2D

 20 21  0  0  0  0  0  0  0  0999 V2000
   -2.3941    3.2834    0.0000 C   0  0  0  0  0  0  0  0  0  0  0  0
   -0.9538    2.8647    0.0000 C   0  0  0  0  0  0  0  0  0  0  0  0
   -0.5962    1.4080    0.0000 N   0  0  0  0  0  0  0  0  0  0  0  0
    0.8442    0.9893    0.0000 C   0  0  0  0  0  0  0  0  0  0  0  0
    1.2018   -0.4675    0.0000 C   0  0  0  0  0  0  0  0  0  0  0  0
    2.6421   -0.8862    0.0000 C   0  0  0  0  0  0  0  0  0  0  0  0
    2.9997   -2.3430    0.0000 C   0  0  0  0  0  0  0  0  0  0  0  0
    4.4401   -2.7617    0.0000 C   0  0  0  0  0  0  0  0  0  0  0  0
    5.5229   -1.7236    0.0000 C   0  0  0  0  0  0  0  0  0  0  0  0
    5.1653   -0.2668    0.0000 C   0  0  0  0  0  0  0  0  0  0  0  0
    3.7249    0.1519    0.0000 C   0  0  0  0  0  0  0  0  0  0  0  0
    3.3674    1.6086    0.0000 O   0  0  0  0  0  0  0  0  0  0  0  0
    4.4502    2.6467    0.0000 C   0  0  0  0  0  0  0  0  0  0  0  0
   -1.6790    0.3699    0.0000 C   0  0  0  0  0  0  0  0  0  0  0  0
   -3.1194    0.7886    0.0000 C   0  0  0  0  0  0  0  0  0  0  0  0
   -4.2022   -0.2494    0.0000 N   0  0  0  0  0  0  0  0  0  0  0  0
   -3.9988   -1.7356    0.0000 C   0  0  0  0  0  0  0  0  0  0  0  0
   -5.3494   -2.3882    0.0000 C   0  0  0  0  0  0  0  0  0  0  0  0
   -6.3874   -1.3054    0.0000 C   0  0  0  0  0  0  0  0  0  0  0  0
   -5.6784    0.0164    0.0000 C   0  0  0  0  0  0  0  0  0  0  0  0
  1  2  1  0
  2  3  1  0
  3  4  1  0
  4  5  1  0
  5  6  1  0
  6  7  2  0
  7  8  1  0
  8  9  2  0
  9 10  1  0
 10 11  2  0
 11 12  1  0
 12 13  1  0
  3 14  1  0
 14 15  1  0
 15 16  1  0
 16 17  1  0
 17 18  1  0
 18 19  1  0
 19 20  1  0
 11  6  1  0
 20 16  1  0
M  END
>  <Compound_Key>  (574) 
20f, UMB117

>  <Ki>  (574) 
131.0

>  <database>  (574) 
NewLiterature

>  <Document_ChEMBL_ID>  (574) 
10.4155/fmc-2017-0164

$$$$

     RDKit          2D

 27 29  0  0  0  0  0  0  0  0999 V2000
   -5.4488   -4.2008    0.0000 C   0  0  0  0  0  0  0  0  0  0  0  0
   -4.4083   -3.1204    0.0000 O   0  0  0  0  0  0  0  0  0  0  0  0
   -4.8236   -1.6791    0.0000 C   0  0  0  0  0  0  0  0  0  0  0  0
   -6.2795   -1.3181    0.0000 C   0  0  0  0  0  0  0  0  0  0  0  0
   -6.6949    0.1233    0.0000 C   0  0  0  0  0  0  0  0  0  0  0  0
   -5.6543    1.2036    0.0000 C   0  0  0  0  0  0  0  0  0  0  0  0
   -4.1984    0.8427    0.0000 C   0  0  0  0  0  0  0  0  0  0  0  0
   -3.1578    1.9230    0.0000 C   0  0  0  0  0  0  0  0  0  0  0  0
   -3.5731    3.3644    0.0000 O   0  0  0  0  0  0  0  0  0  0  0  0
   -1.7019    1.5621    0.0000 C   0  0  0  0  0  0  0  0  0  0  0  0
   -0.6613    2.6424    0.0000 N   0  0  0  0  0  0  0  0  0  0  0  0
    0.7946    2.2815    0.0000 C   0  0  0  0  0  0  0  0  0  0  0  0
    1.2100    0.8401    0.0000 C   0  0  0  0  0  0  0  0  0  0  0  0
    2.6659    0.4791    0.0000 C   0  0  0  0  0  0  0  0  0  0  0  0
    3.7064    1.5595    0.0000 N   0  0  0  0  0  0  0  0  0  0  0  0
    5.1624    1.1985    0.0000 C   0  0  0  0  0  0  0  0  0  0  0  0
    5.5777   -0.2428    0.0000 C   0  0  0  0  0  0  0  0  0  0  0  0
    4.5371   -1.3232    0.0000 C   0  0  0  0  0  0  0  0  0  0  0  0
    4.9525   -2.7646    0.0000 C   0  0  0  0  0  0  0  0  0  0  0  0
    6.4084   -3.1255    0.0000 C   0  0  0  0  0  0  0  0  0  0  0  0
    7.4490   -2.0452    0.0000 C   0  0  0  0  0  0  0  0  0  0  0  0
    7.0336   -0.6038    0.0000 C   0  0  0  0  0  0  0  0  0  0  0  0
    3.2911    3.0008    0.0000 C   0  0  0  0  0  0  0  0  0  0  0  0
    1.8352    3.3618    0.0000 C   0  0  0  0  0  0  0  0  0  0  0  0
   -3.7830   -0.5987    0.0000 C   0  0  0  0  0  0  0  0  0  0  0  0
   -2.3271   -0.9597    0.0000 O   0  0  0  0  0  0  0  0  0  0  0  0
   -1.9118   -2.4010    0.0000 C   0  0  0  0  0  0  0  0  0  0  0  0
  1  2  1  0
  2  3  1  0
  3  4  2  0
  4  5  1  0
  5  6  2  0
  6  7  1  0
  7  8  1  0
  8  9  1  0
  8 10  1  0
 10 11  1  0
 11 12  1  0
 12 13  1  0
 13 14  1  0
 14 15  1  0
 15 16  1  0
 16 17  1  0
 17 18  2  0
 18 19  1  0
 19 20  2  0
 20 21  1  0
 21 22  2  0
 15 23  1  0
 23 24  1  0
  7 25  2  0
 25 26  1  0
 26 27  1  0
 25  3  1  0
 24 12  1  0
 22 17  1  0
M  END
>  <ChemBL_ID>  (575) 
CHEMBL311451

>  <Compound_Key>  (575) 
40

>  <Ki>  (575) 
535.0

>  <database>  (575) 
CHEMBL

>  <Assay_ChEMBL_ID>  (575) 
CHEMBL805746

>  <Document_ChEMBL_ID>  (575) 
CHEMBL1131000

$$$$

     RDKit          2D

 24 26  0  0  0  0  0  0  0  0999 V2000
    1.8534    0.3038    0.0000 O   0  0  0  0  0  0  0  0  0  0  0  0
    2.3867   -1.0981    0.0000 C   0  0  0  0  0  0  0  0  0  0  0  0
    3.8675   -1.3373    0.0000 C   0  0  0  0  0  0  0  0  0  0  0  0
    4.8150   -0.1744    0.0000 C   0  0  0  0  0  0  0  0  0  0  0  0
    6.2958   -0.4135    0.0000 C   0  0  0  0  0  0  0  0  0  0  0  0
    7.2433    0.7494    0.0000 C   0  0  0  0  0  0  0  0  0  0  0  0
    6.7100    2.1514    0.0000 C   0  0  0  0  0  0  0  0  0  0  0  0
    5.2292    2.3905    0.0000 C   0  0  0  0  0  0  0  0  0  0  0  0
    4.2817    1.2276    0.0000 C   0  0  0  0  0  0  0  0  0  0  0  0
    2.8009    1.4667    0.0000 O   0  0  0  0  0  0  0  0  0  0  0  0
    1.4392   -2.2610    0.0000 N   0  0  0  0  0  0  0  0  0  0  0  0
   -0.0416   -2.0219    0.0000 C   0  0  0  0  0  0  0  0  0  0  0  0
   -0.5749   -0.6199    0.0000 C   0  0  0  0  0  0  0  0  0  0  0  0
   -2.0557   -0.3808    0.0000 C   0  0  0  0  0  0  0  0  0  0  0  0
   -3.0032   -1.5437    0.0000 N   0  0  0  0  0  0  0  0  0  0  0  0
   -4.4840   -1.3046    0.0000 C   0  0  0  0  0  0  0  0  0  0  0  0
   -5.0174    0.0974    0.0000 C   0  0  0  0  0  0  0  0  0  0  0  0
   -4.0699    1.2603    0.0000 C   0  0  0  0  0  0  0  0  0  0  0  0
   -4.6032    2.6623    0.0000 C   0  0  0  0  0  0  0  0  0  0  0  0
   -6.0840    2.9014    0.0000 C   0  0  0  0  0  0  0  0  0  0  0  0
   -7.0315    1.7385    0.0000 C   0  0  0  0  0  0  0  0  0  0  0  0
   -6.4982    0.3365    0.0000 C   0  0  0  0  0  0  0  0  0  0  0  0
   -2.4699   -2.9457    0.0000 C   0  0  0  0  0  0  0  0  0  0  0  0
   -0.9891   -3.1848    0.0000 C   0  0  0  0  0  0  0  0  0  0  0  0
  1  2  2  0
  2  3  1  0
  3  4  1  0
  4  5  2  0
  5  6  1  0
  6  7  2  0
  7  8  1  0
  8  9  2  0
  9 10  1  0
  2 11  1  0
 11 12  1  0
 12 13  1  0
 13 14  1  0
 14 15  1  0
 15 16  1  0
 16 17  1  0
 17 18  2  0
 18 19  1  0
 19 20  2  0
 20 21  1  0
 21 22  2  0
 15 23  1  0
 23 24  1  0
  9  4  1  0
 24 12  1  0
 22 17  1  0
M  END
>  <ChemBL_ID>  (576) 
CHEMBL311579

>  <Compound_Key>  (576) 
26

>  <Ki>  (576) 
343.0

>  <database>  (576) 
CHEMBL

>  <Assay_ChEMBL_ID>  (576) 
CHEMBL805746

>  <Document_ChEMBL_ID>  (576) 
CHEMBL1131000

$$$$

     RDKit          2D

 25 27  0  0  0  0  0  0  0  0999 V2000
   -8.8030   -2.0932    0.0000 C   0  0  0  0  0  0  0  0  0  0  0  0
   -7.3498   -2.4648    0.0000 S   0  0  0  0  0  0  0  0  0  0  0  0
   -6.3013   -1.3921    0.0000 C   0  0  0  0  0  0  0  0  0  0  0  0
   -6.7061    0.0523    0.0000 C   0  0  0  0  0  0  0  0  0  0  0  0
   -5.6577    1.1250    0.0000 C   0  0  0  0  0  0  0  0  0  0  0  0
   -4.2044    0.7534    0.0000 C   0  0  0  0  0  0  0  0  0  0  0  0
   -3.1560    1.8261    0.0000 N   0  0  0  0  0  0  0  0  0  0  0  0
   -1.7027    1.4545    0.0000 C   0  0  0  0  0  0  0  0  0  0  0  0
   -1.2980    0.0101    0.0000 O   0  0  0  0  0  0  0  0  0  0  0  0
   -0.6543    2.5272    0.0000 N   0  0  0  0  0  0  0  0  0  0  0  0
    0.7990    2.1556    0.0000 C   0  0  0  0  0  0  0  0  0  0  0  0
    1.2037    0.7112    0.0000 C   0  0  0  0  0  0  0  0  0  0  0  0
    2.6570    0.3396    0.0000 C   0  0  0  0  0  0  0  0  0  0  0  0
    3.7054    1.4123    0.0000 N   0  0  0  0  0  0  0  0  0  0  0  0
    5.1587    1.0407    0.0000 C   0  0  0  0  0  0  0  0  0  0  0  0
    5.5634   -0.4037    0.0000 C   0  0  0  0  0  0  0  0  0  0  0  0
    4.5150   -1.4764    0.0000 C   0  0  0  0  0  0  0  0  0  0  0  0
    4.9198   -2.9207    0.0000 C   0  0  0  0  0  0  0  0  0  0  0  0
    6.3730   -3.2924    0.0000 C   0  0  0  0  0  0  0  0  0  0  0  0
    7.4215   -2.2196    0.0000 C   0  0  0  0  0  0  0  0  0  0  0  0
    7.0167   -0.7753    0.0000 C   0  0  0  0  0  0  0  0  0  0  0  0
    3.3006    2.8567    0.0000 C   0  0  0  0  0  0  0  0  0  0  0  0
    1.8474    3.2283    0.0000 C   0  0  0  0  0  0  0  0  0  0  0  0
   -3.7997   -0.6910    0.0000 C   0  0  0  0  0  0  0  0  0  0  0  0
   -4.8481   -1.7637    0.0000 C   0  0  0  0  0  0  0  0  0  0  0  0
  1  2  1  0
  2  3  1  0
  3  4  2  0
  4  5  1  0
  5  6  2  0
  6  7  1  0
  7  8  1  0
  8  9  2  0
  8 10  1  0
 10 11  1  0
 11 12  1  0
 12 13  1  0
 13 14  1  0
 14 15  1  0
 15 16  1  0
 16 17  2  0
 17 18  1  0
 18 19  2  0
 19 20  1  0
 20 21  2  0
 14 22  1  0
 22 23  1  0
  6 24  1  0
 24 25  2  0
 25  3  1  0
 23 11  1  0
 21 16  1  0
M  END
>  <ChemBL_ID>  (577) 
CHEMBL76802

>  <Compound_Key>  (577) 
42

>  <Ki>  (577) 
80.5

>  <database>  (577) 
CHEMBL

>  <Assay_ChEMBL_ID>  (577) 
CHEMBL805746

>  <Document_ChEMBL_ID>  (577) 
CHEMBL1131000

$$$$

     RDKit          2D

 27 30  0  0  0  0  0  0  0  0999 V2000
   -9.4439   -0.8282    0.0000 C   0  0  0  0  0  0  0  0  0  0  0  0
   -8.0074   -1.2600    0.0000 O   0  0  0  0  0  0  0  0  0  0  0  0
   -6.9152   -0.2320    0.0000 C   0  0  0  0  0  0  0  0  0  0  0  0
   -7.2594    1.2280    0.0000 C   0  0  0  0  0  0  0  0  0  0  0  0
   -6.1671    2.2561    0.0000 C   0  0  0  0  0  0  0  0  0  0  0  0
   -4.7306    1.8242    0.0000 C   0  0  0  0  0  0  0  0  0  0  0  0
   -4.3864    0.3642    0.0000 C   0  0  0  0  0  0  0  0  0  0  0  0
   -5.4787   -0.6638    0.0000 C   0  0  0  0  0  0  0  0  0  0  0  0
   -5.1345   -2.1238    0.0000 O   0  0  0  0  0  0  0  0  0  0  0  0
   -3.6980   -2.5557    0.0000 C   0  0  0  0  0  0  0  0  0  0  0  0
   -2.6057   -1.5276    0.0000 C   0  0  0  0  0  0  0  0  0  0  0  0
   -2.9500   -0.0676    0.0000 C   0  0  0  0  0  0  0  0  0  0  0  0
   -1.8577    0.9604    0.0000 C   0  0  0  0  0  0  0  0  0  0  0  0
   -0.4212    0.5286    0.0000 C   0  0  0  0  0  0  0  0  0  0  0  0
    0.6711    1.5566    0.0000 C   0  0  0  0  0  0  0  0  0  0  0  0
    2.1075    1.1248    0.0000 N   0  0  0  0  0  0  0  0  0  0  0  0
    2.4518   -0.3352    0.0000 C   0  0  0  0  0  0  0  0  0  0  0  0
    3.8882   -0.7671    0.0000 C   0  0  0  0  0  0  0  0  0  0  0  0
    4.9805    0.2610    0.0000 N   0  0  0  0  0  0  0  0  0  0  0  0
    6.4170   -0.1709    0.0000 C   0  0  0  0  0  0  0  0  0  0  0  0
    6.7612   -1.6309    0.0000 C   0  0  0  0  0  0  0  0  0  0  0  0
    8.1977   -2.0627    0.0000 C   0  0  0  0  0  0  0  0  0  0  0  0
    9.2899   -1.0347    0.0000 C   0  0  0  0  0  0  0  0  0  0  0  0
    8.9457    0.4253    0.0000 C   0  0  0  0  0  0  0  0  0  0  0  0
    7.5092    0.8572    0.0000 C   0  0  0  0  0  0  0  0  0  0  0  0
    4.6363    1.7210    0.0000 C   0  0  0  0  0  0  0  0  0  0  0  0
    3.1998    2.1528    0.0000 C   0  0  0  0  0  0  0  0  0  0  0  0
  1  2  1  0
  2  3  1  0
  3  4  2  0
  4  5  1  0
  5  6  2  0
  6  7  1  0
  7  8  2  0
  8  9  1  0
  9 10  1  0
 10 11  1  0
 11 12  1  0
 12 13  1  0
 13 14  1  0
 14 15  1  0
 15 16  1  0
 16 17  1  0
 17 18  1  0
 18 19  1  0
 19 20  1  0
 20 21  1  0
 21 22  1  0
 22 23  1  0
 23 24  1  0
 24 25  1  0
 19 26  1  0
 26 27  1  0
  8  3  1  0
 27 16  1  0
 12  7  1  0
 25 20  1  0
M  END
>  <ChemBL_ID>  (578) 
CHEMBL1672040

>  <Ki>  (578) 
9.72

>  <database>  (578) 
SRSLDB

$$$$

     RDKit          2D

 28 32  0  0  0  0  0  0  0  0999 V2000
    2.9241   -3.1551    0.0000 O   0  0  0  0  0  0  0  0  0  0  0  0
    3.6418   -1.8379    0.0000 C   0  0  0  0  0  0  0  0  0  0  0  0
    5.1413   -1.8009    0.0000 N   0  0  0  0  0  0  0  0  0  0  0  0
    5.8590   -0.4837    0.0000 C   0  0  0  0  0  0  0  0  0  0  0  0
    7.3586   -0.4467    0.0000 C   0  0  0  0  0  0  0  0  0  0  0  0
    8.0762    0.8705    0.0000 C   0  0  0  0  0  0  0  0  0  0  0  0
    7.2944    2.1506    0.0000 C   0  0  0  0  0  0  0  0  0  0  0  0
    5.7948    2.1136    0.0000 C   0  0  0  0  0  0  0  0  0  0  0  0
    5.0772    0.7964    0.0000 C   0  0  0  0  0  0  0  0  0  0  0  0
    3.5776    0.7593    0.0000 C   0  0  0  0  0  0  0  0  0  0  0  0
    2.5467    1.8489    0.0000 N   0  0  0  0  0  0  0  0  0  0  0  0
    1.1919    1.2052    0.0000 C   0  0  0  0  0  0  0  0  0  0  0  0
    1.3855   -0.2823    0.0000 C   0  0  0  0  0  0  0  0  0  0  0  0
    0.2959   -1.3132    0.0000 C   0  0  0  0  0  0  0  0  0  0  0  0
   -1.1417   -0.8851    0.0000 N   0  0  0  0  0  0  0  0  0  0  0  0
   -1.4897    0.5740    0.0000 C   0  0  0  0  0  0  0  0  0  0  0  0
   -2.9273    1.0022    0.0000 C   0  0  0  0  0  0  0  0  0  0  0  0
   -4.0169   -0.0288    0.0000 N   0  0  0  0  0  0  0  0  0  0  0  0
   -5.4545    0.3994    0.0000 C   0  0  0  0  0  0  0  0  0  0  0  0
   -5.8025    1.8585    0.0000 C   0  0  0  0  0  0  0  0  0  0  0  0
   -7.2401    2.2866    0.0000 C   0  0  0  0  0  0  0  0  0  0  0  0
   -8.3297    1.2557    0.0000 C   0  0  0  0  0  0  0  0  0  0  0  0
   -7.9817   -0.2034    0.0000 C   0  0  0  0  0  0  0  0  0  0  0  0
   -6.5441   -0.6315    0.0000 C   0  0  0  0  0  0  0  0  0  0  0  0
   -6.1961   -2.0906    0.0000 Cl  0  0  0  0  0  0  0  0  0  0  0  0
   -3.6689   -1.4878    0.0000 C   0  0  0  0  0  0  0  0  0  0  0  0
   -2.2313   -1.9160    0.0000 C   0  0  0  0  0  0  0  0  0  0  0  0
    2.8599   -0.5578    0.0000 N   0  0  0  0  0  0  0  0  0  0  0  0
  1  2  1  0
  2  3  2  0
  3  4  1  0
  4  5  2  0
  5  6  1  0
  6  7  2  0
  7  8  1  0
  8  9  2  0
  9 10  1  0
 10 11  2  0
 11 12  1  0
 12 13  2  0
 13 14  1  0
 14 15  1  0
 15 16  1  0
 16 17  1  0
 17 18  1  0
 18 19  1  0
 19 20  2  0
 20 21  1  0
 21 22  2  0
 22 23  1  0
 23 24  2  0
 24 25  1  0
 18 26  1  0
 26 27  1  0
 13 28  1  0
 28  2  1  0
  9  4  1  0
 28 10  1  0
 27 15  1  0
 24 19  1  0
M  END
>  <ChemBL_ID>  (579) 
CHEMBL320068

>  <Compound_Key>  (579) 
52b

>  <Ki>  (579) 
3050.0

>  <database>  (579) 
CHEMBL

>  <Assay_ChEMBL_ID>  (579) 
CHEMBL805744

>  <Document_ChEMBL_ID>  (579) 
CHEMBL1131058

$$$$

     RDKit          2D

 25 27  0  0  0  0  0  0  0  0999 V2000
    1.4345    0.1394    0.0000 O   0  0  0  0  0  0  0  0  0  0  0  0
    1.9176   -1.2806    0.0000 C   0  0  0  0  0  0  0  0  0  0  0  0
    3.3890   -1.5723    0.0000 C   0  0  0  0  0  0  0  0  0  0  0  0
    4.3772   -0.4439    0.0000 C   0  0  0  0  0  0  0  0  0  0  0  0
    5.8486   -0.7356    0.0000 C   0  0  0  0  0  0  0  0  0  0  0  0
    6.8369    0.3929    0.0000 C   0  0  0  0  0  0  0  0  0  0  0  0
    8.3082    0.1012    0.0000 F   0  0  0  0  0  0  0  0  0  0  0  0
    6.3538    1.8129    0.0000 C   0  0  0  0  0  0  0  0  0  0  0  0
    4.8824    2.1046    0.0000 C   0  0  0  0  0  0  0  0  0  0  0  0
    4.3993    3.5247    0.0000 F   0  0  0  0  0  0  0  0  0  0  0  0
    3.8941    0.9762    0.0000 C   0  0  0  0  0  0  0  0  0  0  0  0
    0.9293   -2.4091    0.0000 N   0  0  0  0  0  0  0  0  0  0  0  0
   -0.5421   -2.1174    0.0000 C   0  0  0  0  0  0  0  0  0  0  0  0
   -1.0252   -0.6973    0.0000 C   0  0  0  0  0  0  0  0  0  0  0  0
   -2.4965   -0.4057    0.0000 C   0  0  0  0  0  0  0  0  0  0  0  0
   -3.4848   -1.5341    0.0000 N   0  0  0  0  0  0  0  0  0  0  0  0
   -4.9562   -1.2424    0.0000 C   0  0  0  0  0  0  0  0  0  0  0  0
   -5.4393    0.1777    0.0000 C   0  0  0  0  0  0  0  0  0  0  0  0
   -4.4510    1.3061    0.0000 C   0  0  0  0  0  0  0  0  0  0  0  0
   -4.9341    2.7262    0.0000 C   0  0  0  0  0  0  0  0  0  0  0  0
   -6.4055    3.0178    0.0000 C   0  0  0  0  0  0  0  0  0  0  0  0
   -7.3937    1.8894    0.0000 C   0  0  0  0  0  0  0  0  0  0  0  0
   -6.9106    0.4693    0.0000 C   0  0  0  0  0  0  0  0  0  0  0  0
   -3.0017   -2.9542    0.0000 C   0  0  0  0  0  0  0  0  0  0  0  0
   -1.5303   -3.2458    0.0000 C   0  0  0  0  0  0  0  0  0  0  0  0
  1  2  2  0
  2  3  1  0
  3  4  1  0
  4  5  2  0
  5  6  1  0
  6  7  1  0
  6  8  2  0
  8  9  1  0
  9 10  1  0
  9 11  2  0
  2 12  1  0
 12 13  1  0
 13 14  1  0
 14 15  1  0
 15 16  1  0
 16 17  1  0
 17 18  1  0
 18 19  2  0
 19 20  1  0
 20 21  2  0
 21 22  1  0
 22 23  2  0
 16 24  1  0
 24 25  1  0
 11  4  1  0
 25 13  1  0
 23 18  1  0
M  END
>  <ChemBL_ID>  (580) 
CHEMBL312254

>  <Compound_Key>  (580) 
18

>  <Ki>  (580) 
37.3

>  <database>  (580) 
CHEMBL

>  <Assay_ChEMBL_ID>  (580) 
CHEMBL805746

>  <Document_ChEMBL_ID>  (580) 
CHEMBL1131000

$$$$

     RDKit          2D

 26 28  0  0  0  0  0  0  0  0999 V2000
    1.0221   -0.2090    0.0000 O   0  0  0  0  0  0  0  0  0  0  0  0
    1.3582   -1.6708    0.0000 C   0  0  0  0  0  0  0  0  0  0  0  0
    2.7923   -2.1107    0.0000 C   0  0  0  0  0  0  0  0  0  0  0  0
    3.8902   -1.0887    0.0000 C   0  0  0  0  0  0  0  0  0  0  0  0
    5.3243   -1.5285    0.0000 C   0  0  0  0  0  0  0  0  0  0  0  0
    6.4223   -0.5065    0.0000 C   0  0  0  0  0  0  0  0  0  0  0  0
    6.0861    0.9554    0.0000 C   0  0  0  0  0  0  0  0  0  0  0  0
    7.1841    1.9774    0.0000 N   0  0  0  0  0  4  0  0  0  0  0  0
    6.8480    3.4392    0.0000 O   0  0  0  0  0  0  0  0  0  0  0  0
    8.6181    1.5375    0.0000 O   0  0  0  0  0  1  0  0  0  0  0  0
    4.6521    1.3952    0.0000 C   0  0  0  0  0  0  0  0  0  0  0  0
    3.5541    0.3732    0.0000 C   0  0  0  0  0  0  0  0  0  0  0  0
    0.2603   -2.6928    0.0000 N   0  0  0  0  0  0  0  0  0  0  0  0
   -1.1738   -2.2530    0.0000 C   0  0  0  0  0  0  0  0  0  0  0  0
   -1.5099   -0.7911    0.0000 C   0  0  0  0  0  0  0  0  0  0  0  0
   -2.9440   -0.3513    0.0000 C   0  0  0  0  0  0  0  0  0  0  0  0
   -4.0419   -1.3733    0.0000 N   0  0  0  0  0  0  0  0  0  0  0  0
   -5.4760   -0.9335    0.0000 C   0  0  0  0  0  0  0  0  0  0  0  0
   -5.8121    0.5284    0.0000 C   0  0  0  0  0  0  0  0  0  0  0  0
   -4.7141    1.5504    0.0000 C   0  0  0  0  0  0  0  0  0  0  0  0
   -5.0503    3.0123    0.0000 C   0  0  0  0  0  0  0  0  0  0  0  0
   -6.4843    3.4521    0.0000 C   0  0  0  0  0  0  0  0  0  0  0  0
   -7.5823    2.4301    0.0000 C   0  0  0  0  0  0  0  0  0  0  0  0
   -7.2462    0.9682    0.0000 C   0  0  0  0  0  0  0  0  0  0  0  0
   -3.7058   -2.8352    0.0000 C   0  0  0  0  0  0  0  0  0  0  0  0
   -2.2717   -3.2750    0.0000 C   0  0  0  0  0  0  0  0  0  0  0  0
  1  2  2  0
  2  3  1  0
  3  4  1  0
  4  5  2  0
  5  6  1  0
  6  7  2  0
  7  8  1  0
  8  9  2  0
  8 10  1  0
  7 11  1  0
 11 12  2  0
  2 13  1  0
 13 14  1  0
 14 15  1  0
 15 16  1  0
 16 17  1  0
 17 18  1  0
 18 19  1  0
 19 20  2  0
 20 21  1  0
 21 22  2  0
 22 23  1  0
 23 24  2  0
 17 25  1  0
 25 26  1  0
 12  4  1  0
 26 14  1  0
 24 19  1  0
M  CHG  2   8   1  10  -1
M  END
>  <ChemBL_ID>  (581) 
CHEMBL307253

>  <Compound_Key>  (581) 
24

>  <Ki>  (581) 
105.4

>  <database>  (581) 
CHEMBL

>  <Assay_ChEMBL_ID>  (581) 
CHEMBL805746

>  <Document_ChEMBL_ID>  (581) 
CHEMBL1131000

$$$$

     RDKit          2D

 35 38  0  0  0  0  0  0  0  0999 V2000
    4.4503   -1.8661    0.0000 C   0  0  0  0  0  0  0  0  0  0  0  0
    3.2044   -1.0309    0.0000 C   0  0  0  0  0  0  0  0  0  0  0  0
    1.8581   -1.6924    0.0000 C   0  0  0  0  0  0  0  0  0  0  0  0
    0.6121   -0.8571    0.0000 N   0  0  0  0  0  0  0  0  0  0  0  0
   -0.7342   -1.5186    0.0000 C   0  0  0  0  0  0  0  0  0  0  0  0
   -1.9801   -0.6834    0.0000 C   0  0  0  0  0  0  0  0  0  0  0  0
   -3.3264   -1.3448    0.0000 C   0  0  0  0  0  0  0  0  0  0  0  0
   -4.5724   -0.5096    0.0000 N   0  0  0  0  0  0  0  0  0  0  0  0
   -5.9187   -1.1710    0.0000 C   0  0  0  0  0  0  0  0  0  0  0  0
   -7.1647   -0.3358    0.0000 C   0  0  0  0  0  0  0  0  0  0  0  0
   -8.5109   -0.9973    0.0000 C   0  0  0  0  0  0  0  0  0  0  0  0
   -8.6113   -2.4939    0.0000 C   0  0  0  0  0  0  0  0  0  0  0  0
   -9.9576   -3.1554    0.0000 F   0  0  0  0  0  0  0  0  0  0  0  0
   -7.3653   -3.3291    0.0000 C   0  0  0  0  0  0  0  0  0  0  0  0
   -6.0190   -2.6677    0.0000 C   0  0  0  0  0  0  0  0  0  0  0  0
   -4.4721    0.9870    0.0000 C   0  0  0  0  0  0  0  0  0  0  0  0
   -3.1258    1.6485    0.0000 C   0  0  0  0  0  0  0  0  0  0  0  0
   -3.0255    3.1451    0.0000 C   0  0  0  0  0  0  0  0  0  0  0  0
   -4.2714    3.9803    0.0000 C   0  0  0  0  0  0  0  0  0  0  0  0
   -4.1711    5.4770    0.0000 F   0  0  0  0  0  0  0  0  0  0  0  0
   -5.6177    3.3189    0.0000 C   0  0  0  0  0  0  0  0  0  0  0  0
   -5.7180    1.8222    0.0000 C   0  0  0  0  0  0  0  0  0  0  0  0
    0.7124    0.6395    0.0000 C   0  0  0  0  0  0  0  0  0  0  0  0
    2.0587    1.3009    0.0000 C   0  0  0  0  0  0  0  0  0  0  0  0
    2.1591    2.7976    0.0000 C   0  0  0  0  0  0  0  0  0  0  0  0
    3.3047    0.4657    0.0000 N   0  0  0  0  0  0  0  0  0  0  0  0
    4.6510    1.1272    0.0000 C   0  0  0  0  0  0  0  0  0  0  0  0
    5.8970    0.2920    0.0000 C   0  0  0  0  0  0  0  0  0  0  0  0
    7.2433    0.9534    0.0000 C   0  0  0  0  0  0  0  0  0  0  0  0
    8.4892    0.1182    0.0000 C   0  0  0  0  0  0  0  0  0  0  0  0
    8.3889   -1.3784    0.0000 C   0  0  0  0  0  0  0  0  0  0  0  0
    9.6349   -2.2137    0.0000 C   0  0  0  0  0  0  0  0  0  0  0  0
   10.9812   -1.5522    0.0000 C   0  0  0  0  0  0  0  0  0  0  0  0
   11.0815   -0.0556    0.0000 C   0  0  0  0  0  0  0  0  0  0  0  0
    9.8355    0.7796    0.0000 C   0  0  0  0  0  0  0  0  0  0  0  0
  2  1  1  6
  2  3  1  0
  3  4  1  0
  4  5  1  0
  5  6  1  0
  6  7  1  0
  7  8  1  0
  8  9  1  0
  9 10  2  0
 10 11  1  0
 11 12  2  0
 12 13  1  0
 12 14  1  0
 14 15  2  0
  8 16  1  0
 16 17  2  0
 17 18  1  0
 18 19  2  0
 19 20  1  0
 19 21  1  0
 21 22  2  0
  4 23  1  0
 23 24  1  0
 24 25  1  1
 24 26  1  0
 26 27  1  0
 27 28  1  0
 28 29  1  0
 29 30  1  0
 30 31  2  0
 31 32  1  0
 32 33  2  0
 33 34  1  0
 34 35  2  0
 26  2  1  0
 35 30  1  0
 15  9  1  0
 22 16  1  0
M  END
>  <ChemBL_ID>  (582) 
CHEMBL313179

>  <Compound_Key>  (582) 
11

>  <Ki>  (582) 
18.6

>  <database>  (582) 
CHEMBL

>  <Assay_ChEMBL_ID>  (582) 
CHEMBL809527

>  <Document_ChEMBL_ID>  (582) 
CHEMBL1145802

$$$$

     RDKit          2D

 18 19  0  0  0  0  0  0  0  0999 V2000
   -6.4952   -1.5000    0.0000 C   0  0  0  0  0  0  0  0  0  0  0  0
   -5.1962   -0.7500    0.0000 C   0  0  0  0  0  0  0  0  0  0  0  0
   -5.1962    0.7500    0.0000 C   0  0  0  0  0  0  0  0  0  0  0  0
   -3.8971    1.5000    0.0000 C   0  0  0  0  0  0  0  0  0  0  0  0
   -2.5981    0.7500    0.0000 C   0  0  0  0  0  0  0  0  0  0  0  0
   -1.2990    1.5000    0.0000 N   0  0  0  0  0  0  0  0  0  0  0  0
   -0.0000    0.7500    0.0000 C   0  0  0  0  0  0  0  0  0  0  0  0
   -0.0000   -0.7500    0.0000 N   0  0  0  0  0  0  0  0  0  0  0  0
    1.2990    1.5000    0.0000 N   0  0  0  0  0  0  0  0  0  0  0  0
    2.5981    0.7500    0.0000 C   0  0  0  0  0  0  0  0  0  0  0  0
    2.5981   -0.7500    0.0000 C   0  0  0  0  0  0  0  0  0  0  0  0
    3.8971   -1.5000    0.0000 C   0  0  0  0  0  0  0  0  0  0  0  0
    5.1962   -0.7500    0.0000 C   0  0  0  0  0  0  0  0  0  0  0  0
    6.4952   -1.5000    0.0000 C   0  0  0  0  0  0  0  0  0  0  0  0
    5.1962    0.7500    0.0000 C   0  0  0  0  0  0  0  0  0  0  0  0
    3.8971    1.5000    0.0000 C   0  0  0  0  0  0  0  0  0  0  0  0
   -2.5981   -0.7500    0.0000 C   0  0  0  0  0  0  0  0  0  0  0  0
   -3.8971   -1.5000    0.0000 C   0  0  0  0  0  0  0  0  0  0  0  0
  1  2  1  0
  2  3  2  0
  3  4  1  0
  4  5  2  0
  5  6  1  0
  6  7  1  0
  7  8  2  0
  7  9  1  0
  9 10  1  0
 10 11  2  0
 11 12  1  0
 12 13  2  0
 13 14  1  0
 13 15  1  0
 15 16  2  0
  5 17  1  0
 17 18  2  0
 18  2  1  0
 16 10  1  0
M  END
>  <ChemBL_ID>  (583) 
CHEMBL81602

>  <Compound_Key>  (583) 
DTG

>  <Ki>  (583) 
1540.0

>  <database>  (583) 
CHEMBL

>  <Assay_ChEMBL_ID>  (583) 
CHEMBL844343

>  <Document_ChEMBL_ID>  (583) 
CHEMBL1126607

$$$$

     RDKit          2D

 26 29  0  0  0  0  0  0  0  0999 V2000
   -1.2165    0.2626    0.0000 O   0  0  0  0  0  0  0  0  0  0  0  0
   -1.5578    1.7232    0.0000 C   0  0  0  0  0  0  0  0  0  0  0  0
   -2.9934    2.1580    0.0000 C   0  0  0  0  0  0  0  0  0  0  0  0
   -4.0877    1.1321    0.0000 C   0  0  0  0  0  0  0  0  0  0  0  0
   -5.5233    1.5668    0.0000 C   0  0  0  0  0  0  0  0  0  0  0  0
   -6.6177    0.5409    0.0000 C   0  0  0  0  0  0  0  0  0  0  0  0
   -6.2763   -0.9198    0.0000 C   0  0  0  0  0  0  0  0  0  0  0  0
   -4.8407   -1.3545    0.0000 C   0  0  0  0  0  0  0  0  0  0  0  0
   -3.7464   -0.3286    0.0000 C   0  0  0  0  0  0  0  0  0  0  0  0
   -4.8106   -2.8542    0.0000 O   0  0  0  0  0  0  0  0  0  0  0  0
   -6.2275   -3.3463    0.0000 C   0  0  0  0  0  0  0  0  0  0  0  0
   -7.1334   -2.1508    0.0000 O   0  0  0  0  0  0  0  0  0  0  0  0
   -0.4635    2.7491    0.0000 N   0  0  0  0  0  0  0  0  0  0  0  0
    0.9721    2.3144    0.0000 C   0  0  0  0  0  0  0  0  0  0  0  0
    1.3134    0.8538    0.0000 C   0  0  0  0  0  0  0  0  0  0  0  0
    2.7490    0.4190    0.0000 C   0  0  0  0  0  0  0  0  0  0  0  0
    3.8434    1.4449    0.0000 N   0  0  0  0  0  0  0  0  0  0  0  0
    5.2790    1.0102    0.0000 C   0  0  0  0  0  0  0  0  0  0  0  0
    5.6203   -0.4505    0.0000 C   0  0  0  0  0  0  0  0  0  0  0  0
    4.5260   -1.4764    0.0000 C   0  0  0  0  0  0  0  0  0  0  0  0
    4.8673   -2.9370    0.0000 C   0  0  0  0  0  0  0  0  0  0  0  0
    6.3029   -3.3718    0.0000 C   0  0  0  0  0  0  0  0  0  0  0  0
    7.3972   -2.3459    0.0000 C   0  0  0  0  0  0  0  0  0  0  0  0
    7.0559   -0.8852    0.0000 C   0  0  0  0  0  0  0  0  0  0  0  0
    3.5020    2.9056    0.0000 C   0  0  0  0  0  0  0  0  0  0  0  0
    2.0664    3.3403    0.0000 C   0  0  0  0  0  0  0  0  0  0  0  0
  1  2  2  0
  2  3  1  0
  3  4  1  0
  4  5  2  0
  5  6  1  0
  6  7  2  0
  7  8  1  0
  8  9  2  0
  8 10  1  0
 10 11  1  0
 11 12  1  0
  2 13  1  0
 13 14  1  0
 14 15  1  0
 15 16  1  0
 16 17  1  0
 17 18  1  0
 18 19  1  0
 19 20  2  0
 20 21  1  0
 21 22  2  0
 22 23  1  0
 23 24  2  0
 17 25  1  0
 25 26  1  0
  9  4  1  0
 26 14  1  0
 12  7  1  0
 24 19  1  0
M  END
>  <ChemBL_ID>  (584) 
CHEMBL80397

>  <Compound_Key>  (584) 
38

>  <Ki>  (584) 
290.0

>  <database>  (584) 
CHEMBL

>  <Assay_ChEMBL_ID>  (584) 
CHEMBL805746

>  <Document_ChEMBL_ID>  (584) 
CHEMBL1131000

$$$$

     RDKit          2D

 25 27  0  0  0  0  0  0  0  0999 V2000
    1.5069    0.2699    0.0000 O   0  0  0  0  0  0  0  0  0  0  0  0
    2.0276   -1.1369    0.0000 C   0  0  0  0  0  0  0  0  0  0  0  0
    3.5062   -1.3893    0.0000 C   0  0  0  0  0  0  0  0  0  0  0  0
    4.4641   -0.2350    0.0000 C   0  0  0  0  0  0  0  0  0  0  0  0
    5.9427   -0.4874    0.0000 C   0  0  0  0  0  0  0  0  0  0  0  0
    6.9006    0.6668    0.0000 C   0  0  0  0  0  0  0  0  0  0  0  0
    8.3793    0.4144    0.0000 F   0  0  0  0  0  0  0  0  0  0  0  0
    6.3800    2.0736    0.0000 C   0  0  0  0  0  0  0  0  0  0  0  0
    4.9014    2.3260    0.0000 C   0  0  0  0  0  0  0  0  0  0  0  0
    3.9434    1.1717    0.0000 C   0  0  0  0  0  0  0  0  0  0  0  0
    2.4648    1.4242    0.0000 F   0  0  0  0  0  0  0  0  0  0  0  0
    1.0697   -2.2912    0.0000 N   0  0  0  0  0  0  0  0  0  0  0  0
   -0.4089   -2.0387    0.0000 C   0  0  0  0  0  0  0  0  0  0  0  0
   -0.9296   -0.6320    0.0000 C   0  0  0  0  0  0  0  0  0  0  0  0
   -2.4082   -0.3796    0.0000 C   0  0  0  0  0  0  0  0  0  0  0  0
   -3.3661   -1.5338    0.0000 N   0  0  0  0  0  0  0  0  0  0  0  0
   -4.8447   -1.2814    0.0000 C   0  0  0  0  0  0  0  0  0  0  0  0
   -5.3654    0.1253    0.0000 C   0  0  0  0  0  0  0  0  0  0  0  0
   -4.4075    1.2796    0.0000 C   0  0  0  0  0  0  0  0  0  0  0  0
   -4.9282    2.6863    0.0000 C   0  0  0  0  0  0  0  0  0  0  0  0
   -6.4068    2.9388    0.0000 C   0  0  0  0  0  0  0  0  0  0  0  0
   -7.3647    1.7845    0.0000 C   0  0  0  0  0  0  0  0  0  0  0  0
   -6.8440    0.3778    0.0000 C   0  0  0  0  0  0  0  0  0  0  0  0
   -2.8455   -2.9406    0.0000 C   0  0  0  0  0  0  0  0  0  0  0  0
   -1.3668   -3.1930    0.0000 C   0  0  0  0  0  0  0  0  0  0  0  0
  1  2  2  0
  2  3  1  0
  3  4  1  0
  4  5  2  0
  5  6  1  0
  6  7  1  0
  6  8  2  0
  8  9  1  0
  9 10  2  0
 10 11  1  0
  2 12  1  0
 12 13  1  0
 13 14  1  0
 14 15  1  0
 15 16  1  0
 16 17  1  0
 17 18  1  0
 18 19  2  0
 19 20  1  0
 20 21  2  0
 21 22  1  0
 22 23  2  0
 16 24  1  0
 24 25  1  0
 10  4  1  0
 25 13  1  0
 23 18  1  0
M  END
>  <ChemBL_ID>  (585) 
CHEMBL77289

>  <Compound_Key>  (585) 
15

>  <Ki>  (585) 
129.3

>  <database>  (585) 
CHEMBL

>  <Assay_ChEMBL_ID>  (585) 
CHEMBL805746

>  <Document_ChEMBL_ID>  (585) 
CHEMBL1131000

$$$$

     RDKit          2D

 25 27  0  0  0  0  0  0  0  0999 V2000
    1.5695    0.4187    0.0000 O   0  0  0  0  0  0  0  0  0  0  0  0
    2.1403   -0.9685    0.0000 C   0  0  0  0  0  0  0  0  0  0  0  0
    3.6270   -1.1678    0.0000 C   0  0  0  0  0  0  0  0  0  0  0  0
    4.5430    0.0201    0.0000 C   0  0  0  0  0  0  0  0  0  0  0  0
    6.0297   -0.1792    0.0000 C   0  0  0  0  0  0  0  0  0  0  0  0
    6.6004   -1.5664    0.0000 Cl  0  0  0  0  0  0  0  0  0  0  0  0
    6.9456    1.0087    0.0000 C   0  0  0  0  0  0  0  0  0  0  0  0
    6.3749    2.3958    0.0000 C   0  0  0  0  0  0  0  0  0  0  0  0
    4.8882    2.5951    0.0000 C   0  0  0  0  0  0  0  0  0  0  0  0
    3.9722    1.4073    0.0000 C   0  0  0  0  0  0  0  0  0  0  0  0
    2.4855    1.6066    0.0000 Cl  0  0  0  0  0  0  0  0  0  0  0  0
    1.2243   -2.1563    0.0000 N   0  0  0  0  0  0  0  0  0  0  0  0
   -0.2624   -1.9570    0.0000 C   0  0  0  0  0  0  0  0  0  0  0  0
   -0.8331   -0.5699    0.0000 C   0  0  0  0  0  0  0  0  0  0  0  0
   -2.3198   -0.3706    0.0000 C   0  0  0  0  0  0  0  0  0  0  0  0
   -3.2358   -1.5584    0.0000 N   0  0  0  0  0  0  0  0  0  0  0  0
   -4.7225   -1.3591    0.0000 C   0  0  0  0  0  0  0  0  0  0  0  0
   -5.2932    0.0281    0.0000 C   0  0  0  0  0  0  0  0  0  0  0  0
   -4.3773    1.2159    0.0000 C   0  0  0  0  0  0  0  0  0  0  0  0
   -4.9480    2.6031    0.0000 C   0  0  0  0  0  0  0  0  0  0  0  0
   -6.4347    2.8024    0.0000 C   0  0  0  0  0  0  0  0  0  0  0  0
   -7.3507    1.6145    0.0000 C   0  0  0  0  0  0  0  0  0  0  0  0
   -6.7799    0.2274    0.0000 C   0  0  0  0  0  0  0  0  0  0  0  0
   -2.6650   -2.9456    0.0000 C   0  0  0  0  0  0  0  0  0  0  0  0
   -1.1783   -3.1449    0.0000 C   0  0  0  0  0  0  0  0  0  0  0  0
  1  2  2  0
  2  3  1  0
  3  4  1  0
  4  5  2  0
  5  6  1  0
  5  7  1  0
  7  8  2  0
  8  9  1  0
  9 10  2  0
 10 11  1  0
  2 12  1  0
 12 13  1  0
 13 14  1  0
 14 15  1  0
 15 16  1  0
 16 17  1  0
 17 18  1  0
 18 19  2  0
 19 20  1  0
 20 21  2  0
 21 22  1  0
 22 23  2  0
 16 24  1  0
 24 25  1  0
 10  4  1  0
 25 13  1  0
 23 18  1  0
M  END
>  <ChemBL_ID>  (586) 
CHEMBL77352

>  <Compound_Key>  (586) 
7

>  <Ki>  (586) 
70.8

>  <database>  (586) 
CHEMBL

>  <Assay_ChEMBL_ID>  (586) 
CHEMBL805746

>  <Document_ChEMBL_ID>  (586) 
CHEMBL1131000

$$$$

     RDKit          2D

 24 26  0  0  0  0  0  0  0  0999 V2000
    1.8534    0.3038    0.0000 O   0  0  0  0  0  0  0  0  0  0  0  0
    2.3867   -1.0981    0.0000 C   0  0  0  0  0  0  0  0  0  0  0  0
    3.8675   -1.3373    0.0000 C   0  0  0  0  0  0  0  0  0  0  0  0
    4.8150   -0.1744    0.0000 C   0  0  0  0  0  0  0  0  0  0  0  0
    6.2958   -0.4135    0.0000 C   0  0  0  0  0  0  0  0  0  0  0  0
    7.2433    0.7494    0.0000 C   0  0  0  0  0  0  0  0  0  0  0  0
    6.7100    2.1514    0.0000 C   0  0  0  0  0  0  0  0  0  0  0  0
    5.2292    2.3905    0.0000 C   0  0  0  0  0  0  0  0  0  0  0  0
    4.2817    1.2276    0.0000 C   0  0  0  0  0  0  0  0  0  0  0  0
    2.8009    1.4667    0.0000 Br  0  0  0  0  0  0  0  0  0  0  0  0
    1.4392   -2.2610    0.0000 N   0  0  0  0  0  0  0  0  0  0  0  0
   -0.0416   -2.0219    0.0000 C   0  0  0  0  0  0  0  0  0  0  0  0
   -0.5749   -0.6199    0.0000 C   0  0  0  0  0  0  0  0  0  0  0  0
   -2.0557   -0.3808    0.0000 C   0  0  0  0  0  0  0  0  0  0  0  0
   -3.0032   -1.5437    0.0000 N   0  0  0  0  0  0  0  0  0  0  0  0
   -4.4840   -1.3046    0.0000 C   0  0  0  0  0  0  0  0  0  0  0  0
   -5.0174    0.0974    0.0000 C   0  0  0  0  0  0  0  0  0  0  0  0
   -4.0699    1.2603    0.0000 C   0  0  0  0  0  0  0  0  0  0  0  0
   -4.6032    2.6623    0.0000 C   0  0  0  0  0  0  0  0  0  0  0  0
   -6.0840    2.9014    0.0000 C   0  0  0  0  0  0  0  0  0  0  0  0
   -7.0315    1.7385    0.0000 C   0  0  0  0  0  0  0  0  0  0  0  0
   -6.4982    0.3365    0.0000 C   0  0  0  0  0  0  0  0  0  0  0  0
   -2.4699   -2.9457    0.0000 C   0  0  0  0  0  0  0  0  0  0  0  0
   -0.9891   -3.1848    0.0000 C   0  0  0  0  0  0  0  0  0  0  0  0
  1  2  2  0
  2  3  1  0
  3  4  1  0
  4  5  2  0
  5  6  1  0
  6  7  2  0
  7  8  1  0
  8  9  2  0
  9 10  1  0
  2 11  1  0
 11 12  1  0
 12 13  1  0
 13 14  1  0
 14 15  1  0
 15 16  1  0
 16 17  1  0
 17 18  2  0
 18 19  1  0
 19 20  2  0
 20 21  1  0
 21 22  2  0
 15 23  1  0
 23 24  1  0
  9  4  1  0
 24 12  1  0
 22 17  1  0
M  END
>  <ChemBL_ID>  (587) 
CHEMBL431775

>  <Compound_Key>  (587) 
8

>  <Ki>  (587) 
86.6

>  <database>  (587) 
CHEMBL

>  <Assay_ChEMBL_ID>  (587) 
CHEMBL805746

>  <Document_ChEMBL_ID>  (587) 
CHEMBL1131000

$$$$

     RDKit          2D

 25 27  0  0  0  0  0  0  0  0999 V2000
    1.5541    0.0871    0.0000 O   0  0  0  0  0  0  0  0  0  0  0  0
    2.0106   -1.3417    0.0000 C   0  0  0  0  0  0  0  0  0  0  0  0
    3.4763   -1.6607    0.0000 C   0  0  0  0  0  0  0  0  0  0  0  0
    4.4854   -0.5509    0.0000 C   0  0  0  0  0  0  0  0  0  0  0  0
    5.9511   -0.8700    0.0000 C   0  0  0  0  0  0  0  0  0  0  0  0
    6.9603    0.2398    0.0000 C   0  0  0  0  0  0  0  0  0  0  0  0
    6.5037    1.6686    0.0000 C   0  0  0  0  0  0  0  0  0  0  0  0
    7.5129    2.7784    0.0000 Cl  0  0  0  0  0  0  0  0  0  0  0  0
    5.0380    1.9877    0.0000 C   0  0  0  0  0  0  0  0  0  0  0  0
    4.0289    0.8779    0.0000 C   0  0  0  0  0  0  0  0  0  0  0  0
    2.5632    1.1969    0.0000 Cl  0  0  0  0  0  0  0  0  0  0  0  0
    1.0015   -2.4515    0.0000 N   0  0  0  0  0  0  0  0  0  0  0  0
   -0.4642   -2.1324    0.0000 C   0  0  0  0  0  0  0  0  0  0  0  0
   -0.9207   -0.7036    0.0000 C   0  0  0  0  0  0  0  0  0  0  0  0
   -2.3864   -0.3846    0.0000 C   0  0  0  0  0  0  0  0  0  0  0  0
   -3.3955   -1.4944    0.0000 N   0  0  0  0  0  0  0  0  0  0  0  0
   -4.8612   -1.1753    0.0000 C   0  0  0  0  0  0  0  0  0  0  0  0
   -5.3178    0.2535    0.0000 C   0  0  0  0  0  0  0  0  0  0  0  0
   -4.3086    1.3633    0.0000 C   0  0  0  0  0  0  0  0  0  0  0  0
   -4.7652    2.7921    0.0000 C   0  0  0  0  0  0  0  0  0  0  0  0
   -6.2308    3.1112    0.0000 C   0  0  0  0  0  0  0  0  0  0  0  0
   -7.2400    2.0014    0.0000 C   0  0  0  0  0  0  0  0  0  0  0  0
   -6.7834    0.5726    0.0000 C   0  0  0  0  0  0  0  0  0  0  0  0
   -2.9390   -2.9232    0.0000 C   0  0  0  0  0  0  0  0  0  0  0  0
   -1.4733   -3.2422    0.0000 C   0  0  0  0  0  0  0  0  0  0  0  0
  1  2  2  0
  2  3  1  0
  3  4  1  0
  4  5  2  0
  5  6  1  0
  6  7  2  0
  7  8  1  0
  7  9  1  0
  9 10  2  0
 10 11  1  0
  2 12  1  0
 12 13  1  0
 13 14  1  0
 14 15  1  0
 15 16  1  0
 16 17  1  0
 17 18  1  0
 18 19  2  0
 19 20  1  0
 20 21  2  0
 21 22  1  0
 22 23  2  0
 16 24  1  0
 24 25  1  0
 10  4  1  0
 25 13  1  0
 23 18  1  0
M  END
>  <ChemBL_ID>  (588) 
CHEMBL262760

>  <Compound_Key>  (588) 
6

>  <Ki>  (588) 
24.5

>  <database>  (588) 
CHEMBL

>  <Assay_ChEMBL_ID>  (588) 
CHEMBL805746

>  <Document_ChEMBL_ID>  (588) 
CHEMBL1131000

$$$$

     RDKit          2D

 25 27  0  0  0  0  0  0  0  0999 V2000
   -8.5211   -2.2981    0.0000 O   0  0  0  0  0  0  0  0  0  0  0  0
   -8.1866   -0.8358    0.0000 N   0  0  0  0  0  4  0  0  0  0  0  0
   -9.2858    0.1849    0.0000 O   0  0  0  0  0  1  0  0  0  0  0  0
   -6.7531   -0.3943    0.0000 C   0  0  0  0  0  0  0  0  0  0  0  0
   -6.4187    1.0679    0.0000 C   0  0  0  0  0  0  0  0  0  0  0  0
   -4.9851    1.5094    0.0000 C   0  0  0  0  0  0  0  0  0  0  0  0
   -3.8860    0.4887    0.0000 C   0  0  0  0  0  0  0  0  0  0  0  0
   -2.4524    0.9302    0.0000 O   0  0  0  0  0  0  0  0  0  0  0  0
   -1.3533   -0.0906    0.0000 C   0  0  0  0  0  0  0  0  0  0  0  0
    0.0803    0.3509    0.0000 C   0  0  0  0  0  0  0  0  0  0  0  0
    1.1794   -0.6698    0.0000 C   0  0  0  0  0  0  0  0  0  0  0  0
    2.6129   -0.2283    0.0000 C   0  0  0  0  0  0  0  0  0  0  0  0
    2.9474    1.2339    0.0000 N   0  0  0  0  0  0  0  0  0  0  0  0
    4.3809    1.6754    0.0000 C   0  0  0  0  0  0  0  0  0  0  0  0
    5.4801    0.6547    0.0000 C   0  0  0  0  0  0  0  0  0  0  0  0
    5.1456   -0.8075    0.0000 C   0  0  0  0  0  0  0  0  0  0  0  0
    6.2448   -1.8283    0.0000 C   0  0  0  0  0  0  0  0  0  0  0  0
    7.6783   -1.3868    0.0000 C   0  0  0  0  0  0  0  0  0  0  0  0
    8.7774   -2.4075    0.0000 F   0  0  0  0  0  0  0  0  0  0  0  0
    8.0127    0.0755    0.0000 C   0  0  0  0  0  0  0  0  0  0  0  0
    6.9136    1.0962    0.0000 C   0  0  0  0  0  0  0  0  0  0  0  0
    1.8482    2.2547    0.0000 C   0  0  0  0  0  0  0  0  0  0  0  0
    0.4147    1.8132    0.0000 C   0  0  0  0  0  0  0  0  0  0  0  0
   -4.2204   -0.9736    0.0000 C   0  0  0  0  0  0  0  0  0  0  0  0
   -5.6540   -1.4151    0.0000 C   0  0  0  0  0  0  0  0  0  0  0  0
  1  2  2  0
  2  3  1  0
  2  4  1  0
  4  5  2  0
  5  6  1  0
  6  7  2  0
  7  8  1  0
  8  9  1  0
  9 10  1  0
 10 11  1  0
 11 12  1  0
 12 13  1  0
 13 14  1  0
 14 15  1  0
 15 16  2  0
 16 17  1  0
 17 18  2  0
 18 19  1  0
 18 20  1  0
 20 21  2  0
 13 22  1  0
 22 23  1  0
  7 24  1  0
 24 25  2  0
 25  4  1  0
 23 10  1  0
 21 15  1  0
M  CHG  2   2   1   3  -1
M  END
>  <ChemBL_ID>  (589) 
CHEMBL46596

>  <Compound_Key>  (589) 
7

>  <Ki>  (589) 
3.9

>  <database>  (589) 
CHEMBL

>  <Assay_ChEMBL_ID>  (589) 
CHEMBL811510

>  <Document_ChEMBL_ID>  (589) 
CHEMBL1130041

$$$$

     RDKit          2D

 24 26  0  0  0  0  0  0  0  0999 V2000
    1.7804    0.1475    0.0000 O   0  0  0  0  0  0  0  0  0  0  0  0
    2.2665   -1.2715    0.0000 C   0  0  0  0  0  0  0  0  0  0  0  0
    3.7385   -1.5600    0.0000 C   0  0  0  0  0  0  0  0  0  0  0  0
    4.7243   -0.4294    0.0000 C   0  0  0  0  0  0  0  0  0  0  0  0
    6.1963   -0.7179    0.0000 C   0  0  0  0  0  0  0  0  0  0  0  0
    7.1822    0.4126    0.0000 C   0  0  0  0  0  0  0  0  0  0  0  0
    6.6960    1.8317    0.0000 C   0  0  0  0  0  0  0  0  0  0  0  0
    5.2240    2.1201    0.0000 C   0  0  0  0  0  0  0  0  0  0  0  0
    4.7378    3.5392    0.0000 Br  0  0  0  0  0  0  0  0  0  0  0  0
    4.2382    0.9896    0.0000 C   0  0  0  0  0  0  0  0  0  0  0  0
    1.2807   -2.4021    0.0000 N   0  0  0  0  0  0  0  0  0  0  0  0
   -0.1913   -2.1136    0.0000 C   0  0  0  0  0  0  0  0  0  0  0  0
   -0.6775   -0.6946    0.0000 C   0  0  0  0  0  0  0  0  0  0  0  0
   -2.1495   -0.4061    0.0000 C   0  0  0  0  0  0  0  0  0  0  0  0
   -3.1353   -1.5367    0.0000 N   0  0  0  0  0  0  0  0  0  0  0  0
   -4.6073   -1.2482    0.0000 C   0  0  0  0  0  0  0  0  0  0  0  0
   -5.0935    0.1709    0.0000 C   0  0  0  0  0  0  0  0  0  0  0  0
   -4.1076    1.3014    0.0000 C   0  0  0  0  0  0  0  0  0  0  0  0
   -4.5938    2.7204    0.0000 C   0  0  0  0  0  0  0  0  0  0  0  0
   -6.0658    3.0089    0.0000 C   0  0  0  0  0  0  0  0  0  0  0  0
   -7.0516    1.8784    0.0000 C   0  0  0  0  0  0  0  0  0  0  0  0
   -6.5655    0.4593    0.0000 C   0  0  0  0  0  0  0  0  0  0  0  0
   -2.6491   -2.9557    0.0000 C   0  0  0  0  0  0  0  0  0  0  0  0
   -1.1771   -3.2442    0.0000 C   0  0  0  0  0  0  0  0  0  0  0  0
  1  2  2  0
  2  3  1  0
  3  4  1  0
  4  5  2  0
  5  6  1  0
  6  7  2  0
  7  8  1  0
  8  9  1  0
  8 10  2  0
  2 11  1  0
 11 12  1  0
 12 13  1  0
 13 14  1  0
 14 15  1  0
 15 16  1  0
 16 17  1  0
 17 18  2  0
 18 19  1  0
 19 20  2  0
 20 21  1  0
 21 22  2  0
 15 23  1  0
 23 24  1  0
 10  4  1  0
 24 12  1  0
 22 17  1  0
M  END
>  <ChemBL_ID>  (590) 
CHEMBL77405

>  <Compound_Key>  (590) 
9

>  <Ki>  (590) 
15.2

>  <database>  (590) 
CHEMBL

>  <Assay_ChEMBL_ID>  (590) 
CHEMBL805746

>  <Document_ChEMBL_ID>  (590) 
CHEMBL1131000

$$$$

     RDKit          2D

 24 26  0  0  0  0  0  0  0  0999 V2000
    1.8534    0.3038    0.0000 O   0  0  0  0  0  0  0  0  0  0  0  0
    2.3867   -1.0981    0.0000 C   0  0  0  0  0  0  0  0  0  0  0  0
    3.8675   -1.3373    0.0000 C   0  0  0  0  0  0  0  0  0  0  0  0
    4.8150   -0.1744    0.0000 C   0  0  0  0  0  0  0  0  0  0  0  0
    6.2958   -0.4135    0.0000 C   0  0  0  0  0  0  0  0  0  0  0  0
    7.2433    0.7494    0.0000 C   0  0  0  0  0  0  0  0  0  0  0  0
    6.7100    2.1514    0.0000 C   0  0  0  0  0  0  0  0  0  0  0  0
    5.2292    2.3905    0.0000 C   0  0  0  0  0  0  0  0  0  0  0  0
    4.2817    1.2276    0.0000 C   0  0  0  0  0  0  0  0  0  0  0  0
    2.8009    1.4667    0.0000 Cl  0  0  0  0  0  0  0  0  0  0  0  0
    1.4392   -2.2610    0.0000 N   0  0  0  0  0  0  0  0  0  0  0  0
   -0.0416   -2.0219    0.0000 C   0  0  0  0  0  0  0  0  0  0  0  0
   -0.5749   -0.6199    0.0000 C   0  0  0  0  0  0  0  0  0  0  0  0
   -2.0557   -0.3808    0.0000 C   0  0  0  0  0  0  0  0  0  0  0  0
   -3.0032   -1.5437    0.0000 N   0  0  0  0  0  0  0  0  0  0  0  0
   -4.4840   -1.3046    0.0000 C   0  0  0  0  0  0  0  0  0  0  0  0
   -5.0174    0.0974    0.0000 C   0  0  0  0  0  0  0  0  0  0  0  0
   -4.0699    1.2603    0.0000 C   0  0  0  0  0  0  0  0  0  0  0  0
   -4.6032    2.6623    0.0000 C   0  0  0  0  0  0  0  0  0  0  0  0
   -6.0840    2.9014    0.0000 C   0  0  0  0  0  0  0  0  0  0  0  0
   -7.0315    1.7385    0.0000 C   0  0  0  0  0  0  0  0  0  0  0  0
   -6.4982    0.3365    0.0000 C   0  0  0  0  0  0  0  0  0  0  0  0
   -2.4699   -2.9457    0.0000 C   0  0  0  0  0  0  0  0  0  0  0  0
   -0.9891   -3.1848    0.0000 C   0  0  0  0  0  0  0  0  0  0  0  0
  1  2  2  0
  2  3  1  0
  3  4  1  0
  4  5  2  0
  5  6  1  0
  6  7  2  0
  7  8  1  0
  8  9  2  0
  9 10  1  0
  2 11  1  0
 11 12  1  0
 12 13  1  0
 13 14  1  0
 14 15  1  0
 15 16  1  0
 16 17  1  0
 17 18  2  0
 18 19  1  0
 19 20  2  0
 20 21  1  0
 21 22  2  0
 15 23  1  0
 23 24  1  0
  9  4  1  0
 24 12  1  0
 22 17  1  0
M  END
>  <ChemBL_ID>  (591) 
CHEMBL76564

>  <Compound_Key>  (591) 
2

>  <Ki>  (591) 
174.0

>  <database>  (591) 
CHEMBL

>  <Assay_ChEMBL_ID>  (591) 
CHEMBL805746

>  <Document_ChEMBL_ID>  (591) 
CHEMBL1131000

$$$$

     RDKit          2D

 25 27  0  0  0  0  0  0  0  0999 V2000
    1.4728   -0.0418    0.0000 O   0  0  0  0  0  0  0  0  0  0  0  0
    1.8902   -1.4826    0.0000 C   0  0  0  0  0  0  0  0  0  0  0  0
    3.3466   -1.8415    0.0000 C   0  0  0  0  0  0  0  0  0  0  0  0
    4.3856   -0.7597    0.0000 C   0  0  0  0  0  0  0  0  0  0  0  0
    5.8421   -1.1186    0.0000 C   0  0  0  0  0  0  0  0  0  0  0  0
    6.8811   -0.0367    0.0000 C   0  0  0  0  0  0  0  0  0  0  0  0
    6.4637    1.4041    0.0000 C   0  0  0  0  0  0  0  0  0  0  0  0
    7.5027    2.4859    0.0000 Cl  0  0  0  0  0  0  0  0  0  0  0  0
    5.0073    1.7630    0.0000 C   0  0  0  0  0  0  0  0  0  0  0  0
    4.5899    3.2037    0.0000 Cl  0  0  0  0  0  0  0  0  0  0  0  0
    3.9682    0.6811    0.0000 C   0  0  0  0  0  0  0  0  0  0  0  0
    0.8511   -2.5644    0.0000 N   0  0  0  0  0  0  0  0  0  0  0  0
   -0.6053   -2.2055    0.0000 C   0  0  0  0  0  0  0  0  0  0  0  0
   -1.0227   -0.7648    0.0000 C   0  0  0  0  0  0  0  0  0  0  0  0
   -2.4791   -0.4059    0.0000 C   0  0  0  0  0  0  0  0  0  0  0  0
   -3.5182   -1.4877    0.0000 N   0  0  0  0  0  0  0  0  0  0  0  0
   -4.9746   -1.1288    0.0000 C   0  0  0  0  0  0  0  0  0  0  0  0
   -5.3920    0.3119    0.0000 C   0  0  0  0  0  0  0  0  0  0  0  0
   -4.3529    1.3938    0.0000 C   0  0  0  0  0  0  0  0  0  0  0  0
   -4.7703    2.8345    0.0000 C   0  0  0  0  0  0  0  0  0  0  0  0
   -6.2268    3.1935    0.0000 C   0  0  0  0  0  0  0  0  0  0  0  0
   -7.2658    2.1116    0.0000 C   0  0  0  0  0  0  0  0  0  0  0  0
   -6.8484    0.6708    0.0000 C   0  0  0  0  0  0  0  0  0  0  0  0
   -3.1008   -2.9285    0.0000 C   0  0  0  0  0  0  0  0  0  0  0  0
   -1.6443   -3.2874    0.0000 C   0  0  0  0  0  0  0  0  0  0  0  0
  1  2  2  0
  2  3  1  0
  3  4  1  0
  4  5  2  0
  5  6  1  0
  6  7  2  0
  7  8  1  0
  7  9  1  0
  9 10  1  0
  9 11  2  0
  2 12  1  0
 12 13  1  0
 13 14  1  0
 14 15  1  0
 15 16  1  0
 16 17  1  0
 17 18  1  0
 18 19  2  0
 19 20  1  0
 20 21  2  0
 21 22  1  0
 22 23  2  0
 16 24  1  0
 24 25  1  0
 11  4  1  0
 25 13  1  0
 23 18  1  0
M  END
>  <ChemBL_ID>  (592) 
CHEMBL77286

>  <Compound_Key>  (592) 
5

>  <Ki>  (592) 
14.6

>  <database>  (592) 
CHEMBL

>  <Assay_ChEMBL_ID>  (592) 
CHEMBL805746

>  <Document_ChEMBL_ID>  (592) 
CHEMBL1131000

$$$$

     RDKit          2D

 25 27  0  0  0  0  0  0  0  0999 V2000
   -8.8030   -2.0932    0.0000 C   0  0  0  0  0  0  0  0  0  0  0  0
   -7.3498   -2.4648    0.0000 O   0  0  0  0  0  0  0  0  0  0  0  0
   -6.3013   -1.3921    0.0000 C   0  0  0  0  0  0  0  0  0  0  0  0
   -6.7061    0.0523    0.0000 C   0  0  0  0  0  0  0  0  0  0  0  0
   -5.6577    1.1250    0.0000 C   0  0  0  0  0  0  0  0  0  0  0  0
   -4.2044    0.7534    0.0000 C   0  0  0  0  0  0  0  0  0  0  0  0
   -3.1560    1.8261    0.0000 C   0  0  0  0  0  0  0  0  0  0  0  0
   -1.7027    1.4545    0.0000 C   0  0  0  0  0  0  0  0  0  0  0  0
   -1.2980    0.0101    0.0000 O   0  0  0  0  0  0  0  0  0  0  0  0
   -0.6543    2.5272    0.0000 N   0  0  0  0  0  0  0  0  0  0  0  0
    0.7990    2.1556    0.0000 C   0  0  0  0  0  0  0  0  0  0  0  0
    1.2037    0.7112    0.0000 C   0  0  0  0  0  0  0  0  0  0  0  0
    2.6570    0.3396    0.0000 C   0  0  0  0  0  0  0  0  0  0  0  0
    3.7054    1.4123    0.0000 N   0  0  0  0  0  0  0  0  0  0  0  0
    5.1587    1.0407    0.0000 C   0  0  0  0  0  0  0  0  0  0  0  0
    5.5634   -0.4037    0.0000 C   0  0  0  0  0  0  0  0  0  0  0  0
    4.5150   -1.4764    0.0000 C   0  0  0  0  0  0  0  0  0  0  0  0
    4.9198   -2.9207    0.0000 C   0  0  0  0  0  0  0  0  0  0  0  0
    6.3730   -3.2924    0.0000 C   0  0  0  0  0  0  0  0  0  0  0  0
    7.4215   -2.2196    0.0000 C   0  0  0  0  0  0  0  0  0  0  0  0
    7.0167   -0.7753    0.0000 C   0  0  0  0  0  0  0  0  0  0  0  0
    3.3006    2.8567    0.0000 C   0  0  0  0  0  0  0  0  0  0  0  0
    1.8474    3.2283    0.0000 C   0  0  0  0  0  0  0  0  0  0  0  0
   -3.7997   -0.6910    0.0000 C   0  0  0  0  0  0  0  0  0  0  0  0
   -4.8481   -1.7637    0.0000 C   0  0  0  0  0  0  0  0  0  0  0  0
  1  2  1  0
  2  3  1  0
  3  4  2  0
  4  5  1  0
  5  6  2  0
  6  7  1  0
  7  8  1  0
  8  9  2  0
  8 10  1  0
 10 11  1  0
 11 12  1  0
 12 13  1  0
 13 14  1  0
 14 15  1  0
 15 16  1  0
 16 17  2  0
 17 18  1  0
 18 19  2  0
 19 20  1  0
 20 21  2  0
 14 22  1  0
 22 23  1  0
  6 24  1  0
 24 25  2  0
 25  3  1  0
 23 11  1  0
 21 16  1  0
M  END
>  <ChemBL_ID>  (593) 
CHEMBL308304

>  <Compound_Key>  (593) 
33

>  <Ki>  (593) 
483.0

>  <database>  (593) 
CHEMBL

>  <Assay_ChEMBL_ID>  (593) 
CHEMBL805746

>  <Document_ChEMBL_ID>  (593) 
CHEMBL1131000

$$$$

     RDKit          2D

 27 29  0  0  0  0  0  0  0  0999 V2000
    0.7494   -0.2994    0.0000 O   0  0  0  0  0  0  0  0  0  0  0  0
    1.0521   -1.7685    0.0000 C   0  0  0  0  0  0  0  0  0  0  0  0
    2.4758   -2.2410    0.0000 C   0  0  0  0  0  0  0  0  0  0  0  0
    3.5967   -1.2443    0.0000 C   0  0  0  0  0  0  0  0  0  0  0  0
    5.0204   -1.7167    0.0000 C   0  0  0  0  0  0  0  0  0  0  0  0
    6.1414   -0.7200    0.0000 C   0  0  0  0  0  0  0  0  0  0  0  0
    5.8387    0.7492    0.0000 C   0  0  0  0  0  0  0  0  0  0  0  0
    6.9596    1.7459    0.0000 C   0  0  0  0  0  0  0  0  0  0  0  0
    8.0806    2.7426    0.0000 F   0  0  0  0  0  0  0  0  0  0  0  0
    7.9563    0.6249    0.0000 F   0  0  0  0  0  0  0  0  0  0  0  0
    5.9629    2.8668    0.0000 F   0  0  0  0  0  0  0  0  0  0  0  0
    4.4150    1.2216    0.0000 C   0  0  0  0  0  0  0  0  0  0  0  0
    3.2940    0.2249    0.0000 C   0  0  0  0  0  0  0  0  0  0  0  0
   -0.0689   -2.7652    0.0000 N   0  0  0  0  0  0  0  0  0  0  0  0
   -1.4925   -2.2928    0.0000 C   0  0  0  0  0  0  0  0  0  0  0  0
   -1.7952   -0.8237    0.0000 C   0  0  0  0  0  0  0  0  0  0  0  0
   -3.2189   -0.3512    0.0000 C   0  0  0  0  0  0  0  0  0  0  0  0
   -4.3399   -1.3479    0.0000 N   0  0  0  0  0  0  0  0  0  0  0  0
   -5.7635   -0.8755    0.0000 C   0  0  0  0  0  0  0  0  0  0  0  0
   -6.0662    0.5937    0.0000 C   0  0  0  0  0  0  0  0  0  0  0  0
   -4.9452    1.5904    0.0000 C   0  0  0  0  0  0  0  0  0  0  0  0
   -5.2479    3.0595    0.0000 C   0  0  0  0  0  0  0  0  0  0  0  0
   -6.6716    3.5319    0.0000 C   0  0  0  0  0  0  0  0  0  0  0  0
   -7.7925    2.5352    0.0000 C   0  0  0  0  0  0  0  0  0  0  0  0
   -7.4899    1.0661    0.0000 C   0  0  0  0  0  0  0  0  0  0  0  0
   -4.0372   -2.8171    0.0000 C   0  0  0  0  0  0  0  0  0  0  0  0
   -2.6135   -3.2895    0.0000 C   0  0  0  0  0  0  0  0  0  0  0  0
  1  2  2  0
  2  3  1  0
  3  4  1  0
  4  5  2  0
  5  6  1  0
  6  7  2  0
  7  8  1  0
  8  9  1  0
  8 10  1  0
  8 11  1  0
  7 12  1  0
 12 13  2  0
  2 14  1  0
 14 15  1  0
 15 16  1  0
 16 17  1  0
 17 18  1  0
 18 19  1  0
 19 20  1  0
 20 21  2  0
 21 22  1  0
 22 23  2  0
 23 24  1  0
 24 25  2  0
 18 26  1  0
 26 27  1  0
 13  4  1  0
 27 15  1  0
 25 20  1  0
M  END
>  <ChemBL_ID>  (594) 
CHEMBL77773

>  <Compound_Key>  (594) 
21

>  <Ki>  (594) 
53.4

>  <database>  (594) 
CHEMBL

>  <Assay_ChEMBL_ID>  (594) 
CHEMBL805746

>  <Document_ChEMBL_ID>  (594) 
CHEMBL1131000

$$$$

     RDKit          2D

 25 27  0  0  0  0  0  0  0  0999 V2000
   -5.7598   -4.1367    0.0000 C   0  0  0  0  0  0  0  0  0  0  0  0
   -4.7064   -3.0689    0.0000 O   0  0  0  0  0  0  0  0  0  0  0  0
   -5.1044   -1.6227    0.0000 C   0  0  0  0  0  0  0  0  0  0  0  0
   -6.5559   -1.2443    0.0000 C   0  0  0  0  0  0  0  0  0  0  0  0
   -6.9540    0.2019    0.0000 C   0  0  0  0  0  0  0  0  0  0  0  0
   -5.9005    1.2698    0.0000 C   0  0  0  0  0  0  0  0  0  0  0  0
   -4.4490    0.8914    0.0000 C   0  0  0  0  0  0  0  0  0  0  0  0
   -3.3956    1.9592    0.0000 C   0  0  0  0  0  0  0  0  0  0  0  0
   -1.9441    1.5808    0.0000 C   0  0  0  0  0  0  0  0  0  0  0  0
   -1.5461    0.1346    0.0000 O   0  0  0  0  0  0  0  0  0  0  0  0
   -0.8907    2.6486    0.0000 N   0  0  0  0  0  0  0  0  0  0  0  0
    0.5608    2.2702    0.0000 C   0  0  0  0  0  0  0  0  0  0  0  0
    0.9589    0.8240    0.0000 C   0  0  0  0  0  0  0  0  0  0  0  0
    2.4104    0.4456    0.0000 C   0  0  0  0  0  0  0  0  0  0  0  0
    3.4638    1.5134    0.0000 N   0  0  0  0  0  0  0  0  0  0  0  0
    4.9153    1.1350    0.0000 C   0  0  0  0  0  0  0  0  0  0  0  0
    5.3133   -0.3112    0.0000 C   0  0  0  0  0  0  0  0  0  0  0  0
    4.2599   -1.3790    0.0000 C   0  0  0  0  0  0  0  0  0  0  0  0
    4.6579   -2.8253    0.0000 C   0  0  0  0  0  0  0  0  0  0  0  0
    6.1094   -3.2037    0.0000 C   0  0  0  0  0  0  0  0  0  0  0  0
    7.1629   -2.1358    0.0000 C   0  0  0  0  0  0  0  0  0  0  0  0
    6.7648   -0.6896    0.0000 C   0  0  0  0  0  0  0  0  0  0  0  0
    3.0658    2.9596    0.0000 C   0  0  0  0  0  0  0  0  0  0  0  0
    1.6143    3.3380    0.0000 C   0  0  0  0  0  0  0  0  0  0  0  0
   -4.0510   -0.5549    0.0000 C   0  0  0  0  0  0  0  0  0  0  0  0
  1  2  1  0
  2  3  1  0
  3  4  2  0
  4  5  1  0
  5  6  2  0
  6  7  1  0
  7  8  1  0
  8  9  1  0
  9 10  2  0
  9 11  1  0
 11 12  1  0
 12 13  1  0
 13 14  1  0
 14 15  1  0
 15 16  1  0
 16 17  1  0
 17 18  2  0
 18 19  1  0
 19 20  2  0
 20 21  1  0
 21 22  2  0
 15 23  1  0
 23 24  1  0
  7 25  2  0
 25  3  1  0
 24 12  1  0
 22 17  1  0
M  END
>  <ChemBL_ID>  (595) 
CHEMBL312692

>  <Compound_Key>  (595) 
32

>  <Ki>  (595) 
326.0

>  <database>  (595) 
CHEMBL

>  <Assay_ChEMBL_ID>  (595) 
CHEMBL805746

>  <Document_ChEMBL_ID>  (595) 
CHEMBL1131000

$$$$

     RDKit          2D

 24 26  0  0  0  0  0  0  0  0999 V2000
    1.6599    0.1489    0.0000 O   0  0  0  0  0  0  0  0  0  0  0  0
    2.1267   -1.2766    0.0000 C   0  0  0  0  0  0  0  0  0  0  0  0
    3.5946   -1.5851    0.0000 C   0  0  0  0  0  0  0  0  0  0  0  0
    4.5957   -0.4681    0.0000 C   0  0  0  0  0  0  0  0  0  0  0  0
    6.0637   -0.7766    0.0000 C   0  0  0  0  0  0  0  0  0  0  0  0
    7.0648    0.3405    0.0000 C   0  0  0  0  0  0  0  0  0  0  0  0
    6.5980    1.7660    0.0000 C   0  0  0  0  0  0  0  0  0  0  0  0
    7.5991    2.8830    0.0000 Cl  0  0  0  0  0  0  0  0  0  0  0  0
    5.1301    2.0745    0.0000 C   0  0  0  0  0  0  0  0  0  0  0  0
    4.1289    0.9575    0.0000 C   0  0  0  0  0  0  0  0  0  0  0  0
    1.1255   -2.3936    0.0000 N   0  0  0  0  0  0  0  0  0  0  0  0
   -0.3424   -2.0851    0.0000 C   0  0  0  0  0  0  0  0  0  0  0  0
   -0.8092   -0.6596    0.0000 C   0  0  0  0  0  0  0  0  0  0  0  0
   -2.2771   -0.3511    0.0000 C   0  0  0  0  0  0  0  0  0  0  0  0
   -3.2783   -1.4681    0.0000 N   0  0  0  0  0  0  0  0  0  0  0  0
   -4.7462   -1.1596    0.0000 C   0  0  0  0  0  0  0  0  0  0  0  0
   -5.2130    0.2659    0.0000 C   0  0  0  0  0  0  0  0  0  0  0  0
   -4.2119    1.3829    0.0000 C   0  0  0  0  0  0  0  0  0  0  0  0
   -4.6787    2.8085    0.0000 C   0  0  0  0  0  0  0  0  0  0  0  0
   -6.1466    3.1170    0.0000 C   0  0  0  0  0  0  0  0  0  0  0  0
   -7.1477    2.0000    0.0000 C   0  0  0  0  0  0  0  0  0  0  0  0
   -6.6809    0.5744    0.0000 C   0  0  0  0  0  0  0  0  0  0  0  0
   -2.8115   -2.8936    0.0000 C   0  0  0  0  0  0  0  0  0  0  0  0
   -1.3435   -3.2021    0.0000 C   0  0  0  0  0  0  0  0  0  0  0  0
  1  2  2  0
  2  3  1  0
  3  4  1  0
  4  5  2  0
  5  6  1  0
  6  7  2  0
  7  8  1  0
  7  9  1  0
  9 10  2  0
  2 11  1  0
 11 12  1  0
 12 13  1  0
 13 14  1  0
 14 15  1  0
 15 16  1  0
 16 17  1  0
 17 18  2  0
 18 19  1  0
 19 20  2  0
 20 21  1  0
 21 22  2  0
 15 23  1  0
 23 24  1  0
 10  4  1  0
 24 12  1  0
 22 17  1  0
M  END
>  <ChemBL_ID>  (596) 
CHEMBL413057

>  <Compound_Key>  (596) 
4

>  <Ki>  (596) 
80.7

>  <database>  (596) 
CHEMBL

>  <Assay_ChEMBL_ID>  (596) 
CHEMBL805746

>  <Document_ChEMBL_ID>  (596) 
CHEMBL1131000

$$$$

     RDKit          2D

 25 27  0  0  0  0  0  0  0  0999 V2000
    1.4728   -0.0418    0.0000 O   0  0  0  0  0  0  0  0  0  0  0  0
    1.8902   -1.4826    0.0000 C   0  0  0  0  0  0  0  0  0  0  0  0
    3.3466   -1.8415    0.0000 C   0  0  0  0  0  0  0  0  0  0  0  0
    4.3856   -0.7597    0.0000 C   0  0  0  0  0  0  0  0  0  0  0  0
    5.8421   -1.1186    0.0000 C   0  0  0  0  0  0  0  0  0  0  0  0
    6.8811   -0.0367    0.0000 C   0  0  0  0  0  0  0  0  0  0  0  0
    6.4637    1.4041    0.0000 C   0  0  0  0  0  0  0  0  0  0  0  0
    7.5027    2.4859    0.0000 O   0  0  0  0  0  0  0  0  0  0  0  0
    5.0073    1.7630    0.0000 C   0  0  0  0  0  0  0  0  0  0  0  0
    4.5899    3.2037    0.0000 Cl  0  0  0  0  0  0  0  0  0  0  0  0
    3.9682    0.6811    0.0000 C   0  0  0  0  0  0  0  0  0  0  0  0
    0.8511   -2.5644    0.0000 N   0  0  0  0  0  0  0  0  0  0  0  0
   -0.6053   -2.2055    0.0000 C   0  0  0  0  0  0  0  0  0  0  0  0
   -1.0227   -0.7648    0.0000 C   0  0  0  0  0  0  0  0  0  0  0  0
   -2.4791   -0.4059    0.0000 C   0  0  0  0  0  0  0  0  0  0  0  0
   -3.5182   -1.4877    0.0000 N   0  0  0  0  0  0  0  0  0  0  0  0
   -4.9746   -1.1288    0.0000 C   0  0  0  0  0  0  0  0  0  0  0  0
   -5.3920    0.3119    0.0000 C   0  0  0  0  0  0  0  0  0  0  0  0
   -4.3529    1.3938    0.0000 C   0  0  0  0  0  0  0  0  0  0  0  0
   -4.7703    2.8345    0.0000 C   0  0  0  0  0  0  0  0  0  0  0  0
   -6.2268    3.1935    0.0000 C   0  0  0  0  0  0  0  0  0  0  0  0
   -7.2658    2.1116    0.0000 C   0  0  0  0  0  0  0  0  0  0  0  0
   -6.8484    0.6708    0.0000 C   0  0  0  0  0  0  0  0  0  0  0  0
   -3.1008   -2.9285    0.0000 C   0  0  0  0  0  0  0  0  0  0  0  0
   -1.6443   -3.2874    0.0000 C   0  0  0  0  0  0  0  0  0  0  0  0
  1  2  2  0
  2  3  1  0
  3  4  1  0
  4  5  2  0
  5  6  1  0
  6  7  2  0
  7  8  1  0
  7  9  1  0
  9 10  1  0
  9 11  2  0
  2 12  1  0
 12 13  1  0
 13 14  1  0
 14 15  1  0
 15 16  1  0
 16 17  1  0
 17 18  1  0
 18 19  2  0
 19 20  1  0
 20 21  2  0
 21 22  1  0
 22 23  2  0
 16 24  1  0
 24 25  1  0
 11  4  1  0
 25 13  1  0
 23 18  1  0
M  END
>  <ChemBL_ID>  (597) 
CHEMBL75810

>  <Compound_Key>  (597) 
30

>  <Ki>  (597) 
757.0

>  <database>  (597) 
CHEMBL

>  <Assay_ChEMBL_ID>  (597) 
CHEMBL805746

>  <Document_ChEMBL_ID>  (597) 
CHEMBL1131000

$$$$

     RDKit          2D

 24 26  0  0  0  0  0  0  0  0999 V2000
    1.6599    0.1489    0.0000 O   0  0  0  0  0  0  0  0  0  0  0  0
    2.1267   -1.2766    0.0000 C   0  0  0  0  0  0  0  0  0  0  0  0
    3.5946   -1.5851    0.0000 C   0  0  0  0  0  0  0  0  0  0  0  0
    4.5957   -0.4681    0.0000 C   0  0  0  0  0  0  0  0  0  0  0  0
    6.0637   -0.7766    0.0000 C   0  0  0  0  0  0  0  0  0  0  0  0
    7.0648    0.3405    0.0000 C   0  0  0  0  0  0  0  0  0  0  0  0
    6.5980    1.7660    0.0000 C   0  0  0  0  0  0  0  0  0  0  0  0
    7.5991    2.8830    0.0000 Br  0  0  0  0  0  0  0  0  0  0  0  0
    5.1301    2.0745    0.0000 C   0  0  0  0  0  0  0  0  0  0  0  0
    4.1289    0.9575    0.0000 C   0  0  0  0  0  0  0  0  0  0  0  0
    1.1255   -2.3936    0.0000 N   0  0  0  0  0  0  0  0  0  0  0  0
   -0.3424   -2.0851    0.0000 C   0  0  0  0  0  0  0  0  0  0  0  0
   -0.8092   -0.6596    0.0000 C   0  0  0  0  0  0  0  0  0  0  0  0
   -2.2771   -0.3511    0.0000 C   0  0  0  0  0  0  0  0  0  0  0  0
   -3.2783   -1.4681    0.0000 N   0  0  0  0  0  0  0  0  0  0  0  0
   -4.7462   -1.1596    0.0000 C   0  0  0  0  0  0  0  0  0  0  0  0
   -5.2130    0.2659    0.0000 C   0  0  0  0  0  0  0  0  0  0  0  0
   -4.2119    1.3829    0.0000 C   0  0  0  0  0  0  0  0  0  0  0  0
   -4.6787    2.8085    0.0000 C   0  0  0  0  0  0  0  0  0  0  0  0
   -6.1466    3.1170    0.0000 C   0  0  0  0  0  0  0  0  0  0  0  0
   -7.1477    2.0000    0.0000 C   0  0  0  0  0  0  0  0  0  0  0  0
   -6.6809    0.5744    0.0000 C   0  0  0  0  0  0  0  0  0  0  0  0
   -2.8115   -2.8936    0.0000 C   0  0  0  0  0  0  0  0  0  0  0  0
   -1.3435   -3.2021    0.0000 C   0  0  0  0  0  0  0  0  0  0  0  0
  1  2  2  0
  2  3  1  0
  3  4  1  0
  4  5  2  0
  5  6  1  0
  6  7  2  0
  7  8  1  0
  7  9  1  0
  9 10  2  0
  2 11  1  0
 11 12  1  0
 12 13  1  0
 13 14  1  0
 14 15  1  0
 15 16  1  0
 16 17  1  0
 17 18  2  0
 18 19  1  0
 19 20  2  0
 20 21  1  0
 21 22  2  0
 15 23  1  0
 23 24  1  0
 10  4  1  0
 24 12  1  0
 22 17  1  0
M  END
>  <ChemBL_ID>  (598) 
CHEMBL77285

>  <Compound_Key>  (598) 
10

>  <Ki>  (598) 
23.9

>  <database>  (598) 
CHEMBL

>  <Assay_ChEMBL_ID>  (598) 
CHEMBL805746

>  <Document_ChEMBL_ID>  (598) 
CHEMBL1131000

$$$$

     RDKit          2D

 23 25  0  0  0  0  0  0  0  0999 V2000
    1.9711    0.3890    0.0000 O   0  0  0  0  0  0  0  0  0  0  0  0
    2.5196   -1.0071    0.0000 C   0  0  0  0  0  0  0  0  0  0  0  0
    4.0029   -1.2302    0.0000 C   0  0  0  0  0  0  0  0  0  0  0  0
    4.9377   -0.0571    0.0000 C   0  0  0  0  0  0  0  0  0  0  0  0
    6.4210   -0.2802    0.0000 C   0  0  0  0  0  0  0  0  0  0  0  0
    7.3559    0.8929    0.0000 C   0  0  0  0  0  0  0  0  0  0  0  0
    6.8074    2.2890    0.0000 C   0  0  0  0  0  0  0  0  0  0  0  0
    5.3241    2.5121    0.0000 C   0  0  0  0  0  0  0  0  0  0  0  0
    4.3892    1.3390    0.0000 C   0  0  0  0  0  0  0  0  0  0  0  0
    1.5847   -2.1802    0.0000 N   0  0  0  0  0  0  0  0  0  0  0  0
    0.1014   -1.9572    0.0000 C   0  0  0  0  0  0  0  0  0  0  0  0
   -0.4471   -0.5610    0.0000 C   0  0  0  0  0  0  0  0  0  0  0  0
   -1.9304   -0.3380    0.0000 C   0  0  0  0  0  0  0  0  0  0  0  0
   -2.8653   -1.5110    0.0000 N   0  0  0  0  0  0  0  0  0  0  0  0
   -4.3486   -1.2880    0.0000 C   0  0  0  0  0  0  0  0  0  0  0  0
   -4.8971    0.1081    0.0000 C   0  0  0  0  0  0  0  0  0  0  0  0
   -3.9622    1.2812    0.0000 C   0  0  0  0  0  0  0  0  0  0  0  0
   -4.5107    2.6773    0.0000 C   0  0  0  0  0  0  0  0  0  0  0  0
   -5.9940    2.9004    0.0000 C   0  0  0  0  0  0  0  0  0  0  0  0
   -6.9289    1.7273    0.0000 C   0  0  0  0  0  0  0  0  0  0  0  0
   -6.3804    0.3312    0.0000 C   0  0  0  0  0  0  0  0  0  0  0  0
   -2.3168   -2.9072    0.0000 C   0  0  0  0  0  0  0  0  0  0  0  0
   -0.8334   -3.1302    0.0000 C   0  0  0  0  0  0  0  0  0  0  0  0
  1  2  2  0
  2  3  1  0
  3  4  1  0
  4  5  2  0
  5  6  1  0
  6  7  2  0
  7  8  1  0
  8  9  2  0
  2 10  1  0
 10 11  1  0
 11 12  1  0
 12 13  1  0
 13 14  1  0
 14 15  1  0
 15 16  1  0
 16 17  2  0
 17 18  1  0
 18 19  2  0
 19 20  1  0
 20 21  2  0
 14 22  1  0
 22 23  1  0
  9  4  1  0
 23 11  1  0
 21 16  1  0
M  END
>  <ChemBL_ID>  (599) 
CHEMBL76895

>  <Compound_Key>  (599) 
1

>  <Ki>  (599) 
240.0

>  <database>  (599) 
CHEMBL

>  <Assay_ChEMBL_ID>  (599) 
CHEMBL805746

>  <Document_ChEMBL_ID>  (599) 
CHEMBL1131000

$$$$

     RDKit          2D

 25 27  0  0  0  0  0  0  0  0999 V2000
    1.5541    0.0871    0.0000 O   0  0  0  0  0  0  0  0  0  0  0  0
    2.0106   -1.3417    0.0000 C   0  0  0  0  0  0  0  0  0  0  0  0
    3.4763   -1.6607    0.0000 C   0  0  0  0  0  0  0  0  0  0  0  0
    4.4854   -0.5509    0.0000 C   0  0  0  0  0  0  0  0  0  0  0  0
    5.9511   -0.8700    0.0000 C   0  0  0  0  0  0  0  0  0  0  0  0
    6.9603    0.2398    0.0000 C   0  0  0  0  0  0  0  0  0  0  0  0
    6.5037    1.6686    0.0000 C   0  0  0  0  0  0  0  0  0  0  0  0
    7.5129    2.7784    0.0000 F   0  0  0  0  0  0  0  0  0  0  0  0
    5.0380    1.9877    0.0000 C   0  0  0  0  0  0  0  0  0  0  0  0
    4.0289    0.8779    0.0000 C   0  0  0  0  0  0  0  0  0  0  0  0
    2.5632    1.1969    0.0000 F   0  0  0  0  0  0  0  0  0  0  0  0
    1.0015   -2.4515    0.0000 N   0  0  0  0  0  0  0  0  0  0  0  0
   -0.4642   -2.1324    0.0000 C   0  0  0  0  0  0  0  0  0  0  0  0
   -0.9207   -0.7036    0.0000 C   0  0  0  0  0  0  0  0  0  0  0  0
   -2.3864   -0.3846    0.0000 C   0  0  0  0  0  0  0  0  0  0  0  0
   -3.3955   -1.4944    0.0000 N   0  0  0  0  0  0  0  0  0  0  0  0
   -4.8612   -1.1753    0.0000 C   0  0  0  0  0  0  0  0  0  0  0  0
   -5.3178    0.2535    0.0000 C   0  0  0  0  0  0  0  0  0  0  0  0
   -4.3086    1.3633    0.0000 C   0  0  0  0  0  0  0  0  0  0  0  0
   -4.7652    2.7921    0.0000 C   0  0  0  0  0  0  0  0  0  0  0  0
   -6.2308    3.1112    0.0000 C   0  0  0  0  0  0  0  0  0  0  0  0
   -7.2400    2.0014    0.0000 C   0  0  0  0  0  0  0  0  0  0  0  0
   -6.7834    0.5726    0.0000 C   0  0  0  0  0  0  0  0  0  0  0  0
   -2.9390   -2.9232    0.0000 C   0  0  0  0  0  0  0  0  0  0  0  0
   -1.4733   -3.2422    0.0000 C   0  0  0  0  0  0  0  0  0  0  0  0
  1  2  2  0
  2  3  1  0
  3  4  1  0
  4  5  2  0
  5  6  1  0
  6  7  2  0
  7  8  1  0
  7  9  1  0
  9 10  2  0
 10 11  1  0
  2 12  1  0
 12 13  1  0
 13 14  1  0
 14 15  1  0
 15 16  1  0
 16 17  1  0
 17 18  1  0
 18 19  2  0
 19 20  1  0
 20 21  2  0
 21 22  1  0
 22 23  2  0
 16 24  1  0
 24 25  1  0
 10  4  1  0
 25 13  1  0
 23 18  1  0
M  END
>  <ChemBL_ID>  (600) 
CHEMBL76547

>  <Compound_Key>  (600) 
14

>  <Ki>  (600) 
130.0

>  <database>  (600) 
CHEMBL

>  <Assay_ChEMBL_ID>  (600) 
CHEMBL805746

>  <Document_ChEMBL_ID>  (600) 
CHEMBL1131000

$$$$

     RDKit          2D

 24 26  0  0  0  0  0  0  0  0999 V2000
    1.7804    0.1475    0.0000 O   0  0  0  0  0  0  0  0  0  0  0  0
    2.2665   -1.2715    0.0000 C   0  0  0  0  0  0  0  0  0  0  0  0
    3.7385   -1.5600    0.0000 C   0  0  0  0  0  0  0  0  0  0  0  0
    4.7243   -0.4294    0.0000 C   0  0  0  0  0  0  0  0  0  0  0  0
    6.1963   -0.7179    0.0000 C   0  0  0  0  0  0  0  0  0  0  0  0
    7.1822    0.4126    0.0000 C   0  0  0  0  0  0  0  0  0  0  0  0
    6.6960    1.8317    0.0000 C   0  0  0  0  0  0  0  0  0  0  0  0
    5.2240    2.1201    0.0000 C   0  0  0  0  0  0  0  0  0  0  0  0
    4.7378    3.5392    0.0000 Cl  0  0  0  0  0  0  0  0  0  0  0  0
    4.2382    0.9896    0.0000 C   0  0  0  0  0  0  0  0  0  0  0  0
    1.2807   -2.4021    0.0000 N   0  0  0  0  0  0  0  0  0  0  0  0
   -0.1913   -2.1136    0.0000 C   0  0  0  0  0  0  0  0  0  0  0  0
   -0.6775   -0.6946    0.0000 C   0  0  0  0  0  0  0  0  0  0  0  0
   -2.1495   -0.4061    0.0000 C   0  0  0  0  0  0  0  0  0  0  0  0
   -3.1353   -1.5367    0.0000 N   0  0  0  0  0  0  0  0  0  0  0  0
   -4.6073   -1.2482    0.0000 C   0  0  0  0  0  0  0  0  0  0  0  0
   -5.0935    0.1709    0.0000 C   0  0  0  0  0  0  0  0  0  0  0  0
   -4.1076    1.3014    0.0000 C   0  0  0  0  0  0  0  0  0  0  0  0
   -4.5938    2.7204    0.0000 C   0  0  0  0  0  0  0  0  0  0  0  0
   -6.0658    3.0089    0.0000 C   0  0  0  0  0  0  0  0  0  0  0  0
   -7.0516    1.8784    0.0000 C   0  0  0  0  0  0  0  0  0  0  0  0
   -6.5655    0.4593    0.0000 C   0  0  0  0  0  0  0  0  0  0  0  0
   -2.6491   -2.9557    0.0000 C   0  0  0  0  0  0  0  0  0  0  0  0
   -1.1771   -3.2442    0.0000 C   0  0  0  0  0  0  0  0  0  0  0  0
  1  2  2  0
  2  3  1  0
  3  4  1  0
  4  5  2  0
  5  6  1  0
  6  7  2  0
  7  8  1  0
  8  9  1  0
  8 10  2  0
  2 11  1  0
 11 12  1  0
 12 13  1  0
 13 14  1  0
 14 15  1  0
 15 16  1  0
 16 17  1  0
 17 18  2  0
 18 19  1  0
 19 20  2  0
 20 21  1  0
 21 22  2  0
 15 23  1  0
 23 24  1  0
 10  4  1  0
 24 12  1  0
 22 17  1  0
M  END
>  <ChemBL_ID>  (601) 
CHEMBL76864

>  <Compound_Key>  (601) 
3

>  <Ki>  (601) 
36.9

>  <database>  (601) 
CHEMBL

>  <Assay_ChEMBL_ID>  (601) 
CHEMBL805746

>  <Document_ChEMBL_ID>  (601) 
CHEMBL1131000

$$$$

     RDKit          2D

 26 28  0  0  0  0  0  0  0  0999 V2000
    1.0946    0.7206    0.0000 O   0  0  0  0  0  0  0  0  0  0  0  0
    1.7467   -0.6302    0.0000 C   0  0  0  0  0  0  0  0  0  0  0  0
    3.2426   -0.7409    0.0000 C   0  0  0  0  0  0  0  0  0  0  0  0
    4.0864    0.4992    0.0000 C   0  0  0  0  0  0  0  0  0  0  0  0
    3.4343    1.8501    0.0000 C   0  0  0  0  0  0  0  0  0  0  0  0
    4.2781    3.0902    0.0000 C   0  0  0  0  0  0  0  0  0  0  0  0
    5.7741    2.9796    0.0000 C   0  0  0  0  0  0  0  0  0  0  0  0
    6.4262    1.6287    0.0000 C   0  0  0  0  0  0  0  0  0  0  0  0
    5.5823    0.3886    0.0000 C   0  0  0  0  0  0  0  0  0  0  0  0
    6.2345   -0.9623    0.0000 N   0  0  0  0  0  4  0  0  0  0  0  0
    5.3906   -2.2024    0.0000 O   0  0  0  0  0  0  0  0  0  0  0  0
    7.7304   -1.0729    0.0000 O   0  0  0  0  0  1  0  0  0  0  0  0
    0.9029   -1.8704    0.0000 N   0  0  0  0  0  0  0  0  0  0  0  0
   -0.5930   -1.7597    0.0000 C   0  0  0  0  0  0  0  0  0  0  0  0
   -1.2451   -0.4089    0.0000 C   0  0  0  0  0  0  0  0  0  0  0  0
   -2.7410   -0.2982    0.0000 C   0  0  0  0  0  0  0  0  0  0  0  0
   -3.5848   -1.5384    0.0000 N   0  0  0  0  0  0  0  0  0  0  0  0
   -5.0807   -1.4277    0.0000 C   0  0  0  0  0  0  0  0  0  0  0  0
   -5.7328   -0.0768    0.0000 C   0  0  0  0  0  0  0  0  0  0  0  0
   -4.8890    1.1633    0.0000 C   0  0  0  0  0  0  0  0  0  0  0  0
   -5.5411    2.5142    0.0000 C   0  0  0  0  0  0  0  0  0  0  0  0
   -7.0370    2.6248    0.0000 C   0  0  0  0  0  0  0  0  0  0  0  0
   -7.8809    1.3847    0.0000 C   0  0  0  0  0  0  0  0  0  0  0  0
   -7.2287    0.0338    0.0000 C   0  0  0  0  0  0  0  0  0  0  0  0
   -2.9327   -2.8892    0.0000 C   0  0  0  0  0  0  0  0  0  0  0  0
   -1.4368   -2.9999    0.0000 C   0  0  0  0  0  0  0  0  0  0  0  0
  1  2  2  0
  2  3  1  0
  3  4  1  0
  4  5  2  0
  5  6  1  0
  6  7  2  0
  7  8  1  0
  8  9  2  0
  9 10  1  0
 10 11  2  0
 10 12  1  0
  2 13  1  0
 13 14  1  0
 14 15  1  0
 15 16  1  0
 16 17  1  0
 17 18  1  0
 18 19  1  0
 19 20  2  0
 20 21  1  0
 21 22  2  0
 22 23  1  0
 23 24  2  0
 17 25  1  0
 25 26  1  0
  9  4  1  0
 26 14  1  0
 24 19  1  0
M  CHG  2  10   1  12  -1
M  END
>  <ChemBL_ID>  (602) 
CHEMBL305728

>  <Compound_Key>  (602) 
22

>  <Ki>  (602) 
493.0

>  <database>  (602) 
CHEMBL

>  <Assay_ChEMBL_ID>  (602) 
CHEMBL805746

>  <Document_ChEMBL_ID>  (602) 
CHEMBL1131000

$$$$

     RDKit          2D

 25 27  0  0  0  0  0  0  0  0999 V2000
    1.4728   -0.0418    0.0000 O   0  0  0  0  0  0  0  0  0  0  0  0
    1.8902   -1.4826    0.0000 C   0  0  0  0  0  0  0  0  0  0  0  0
    3.3466   -1.8415    0.0000 C   0  0  0  0  0  0  0  0  0  0  0  0
    4.3856   -0.7597    0.0000 C   0  0  0  0  0  0  0  0  0  0  0  0
    5.8421   -1.1186    0.0000 C   0  0  0  0  0  0  0  0  0  0  0  0
    6.8811   -0.0367    0.0000 C   0  0  0  0  0  0  0  0  0  0  0  0
    6.4637    1.4041    0.0000 C   0  0  0  0  0  0  0  0  0  0  0  0
    7.5027    2.4859    0.0000 F   0  0  0  0  0  0  0  0  0  0  0  0
    5.0073    1.7630    0.0000 C   0  0  0  0  0  0  0  0  0  0  0  0
    4.5899    3.2037    0.0000 F   0  0  0  0  0  0  0  0  0  0  0  0
    3.9682    0.6811    0.0000 C   0  0  0  0  0  0  0  0  0  0  0  0
    0.8511   -2.5644    0.0000 N   0  0  0  0  0  0  0  0  0  0  0  0
   -0.6053   -2.2055    0.0000 C   0  0  0  0  0  0  0  0  0  0  0  0
   -1.0227   -0.7648    0.0000 C   0  0  0  0  0  0  0  0  0  0  0  0
   -2.4791   -0.4059    0.0000 C   0  0  0  0  0  0  0  0  0  0  0  0
   -3.5182   -1.4877    0.0000 N   0  0  0  0  0  0  0  0  0  0  0  0
   -4.9746   -1.1288    0.0000 C   0  0  0  0  0  0  0  0  0  0  0  0
   -5.3920    0.3119    0.0000 C   0  0  0  0  0  0  0  0  0  0  0  0
   -4.3529    1.3938    0.0000 C   0  0  0  0  0  0  0  0  0  0  0  0
   -4.7703    2.8345    0.0000 C   0  0  0  0  0  0  0  0  0  0  0  0
   -6.2268    3.1935    0.0000 C   0  0  0  0  0  0  0  0  0  0  0  0
   -7.2658    2.1116    0.0000 C   0  0  0  0  0  0  0  0  0  0  0  0
   -6.8484    0.6708    0.0000 C   0  0  0  0  0  0  0  0  0  0  0  0
   -3.1008   -2.9285    0.0000 C   0  0  0  0  0  0  0  0  0  0  0  0
   -1.6443   -3.2874    0.0000 C   0  0  0  0  0  0  0  0  0  0  0  0
  1  2  2  0
  2  3  1  0
  3  4  1  0
  4  5  2  0
  5  6  1  0
  6  7  2  0
  7  8  1  0
  7  9  1  0
  9 10  1  0
  9 11  2  0
  2 12  1  0
 12 13  1  0
 13 14  1  0
 14 15  1  0
 15 16  1  0
 16 17  1  0
 17 18  1  0
 18 19  2  0
 19 20  1  0
 20 21  2  0
 21 22  1  0
 22 23  2  0
 16 24  1  0
 24 25  1  0
 11  4  1  0
 25 13  1  0
 23 18  1  0
M  END
>  <ChemBL_ID>  (603) 
CHEMBL308818

>  <Compound_Key>  (603) 
17

>  <Ki>  (603) 
53.5

>  <database>  (603) 
CHEMBL

>  <Assay_ChEMBL_ID>  (603) 
CHEMBL805746

>  <Document_ChEMBL_ID>  (603) 
CHEMBL1131000

$$$$

     RDKit          2D

 25 27  0  0  0  0  0  0  0  0999 V2000
    1.5695    0.4187    0.0000 O   0  0  0  0  0  0  0  0  0  0  0  0
    2.1403   -0.9685    0.0000 C   0  0  0  0  0  0  0  0  0  0  0  0
    3.6270   -1.1678    0.0000 C   0  0  0  0  0  0  0  0  0  0  0  0
    4.5430    0.0201    0.0000 C   0  0  0  0  0  0  0  0  0  0  0  0
    6.0297   -0.1792    0.0000 C   0  0  0  0  0  0  0  0  0  0  0  0
    6.6004   -1.5664    0.0000 F   0  0  0  0  0  0  0  0  0  0  0  0
    6.9456    1.0087    0.0000 C   0  0  0  0  0  0  0  0  0  0  0  0
    6.3749    2.3958    0.0000 C   0  0  0  0  0  0  0  0  0  0  0  0
    4.8882    2.5951    0.0000 C   0  0  0  0  0  0  0  0  0  0  0  0
    3.9722    1.4073    0.0000 C   0  0  0  0  0  0  0  0  0  0  0  0
    2.4855    1.6066    0.0000 F   0  0  0  0  0  0  0  0  0  0  0  0
    1.2243   -2.1563    0.0000 N   0  0  0  0  0  0  0  0  0  0  0  0
   -0.2624   -1.9570    0.0000 C   0  0  0  0  0  0  0  0  0  0  0  0
   -0.8331   -0.5699    0.0000 C   0  0  0  0  0  0  0  0  0  0  0  0
   -2.3198   -0.3706    0.0000 C   0  0  0  0  0  0  0  0  0  0  0  0
   -3.2358   -1.5584    0.0000 N   0  0  0  0  0  0  0  0  0  0  0  0
   -4.7225   -1.3591    0.0000 C   0  0  0  0  0  0  0  0  0  0  0  0
   -5.2932    0.0281    0.0000 C   0  0  0  0  0  0  0  0  0  0  0  0
   -4.3773    1.2159    0.0000 C   0  0  0  0  0  0  0  0  0  0  0  0
   -4.9480    2.6031    0.0000 C   0  0  0  0  0  0  0  0  0  0  0  0
   -6.4347    2.8024    0.0000 C   0  0  0  0  0  0  0  0  0  0  0  0
   -7.3507    1.6145    0.0000 C   0  0  0  0  0  0  0  0  0  0  0  0
   -6.7799    0.2274    0.0000 C   0  0  0  0  0  0  0  0  0  0  0  0
   -2.6650   -2.9456    0.0000 C   0  0  0  0  0  0  0  0  0  0  0  0
   -1.1783   -3.1449    0.0000 C   0  0  0  0  0  0  0  0  0  0  0  0
  1  2  2  0
  2  3  1  0
  3  4  1  0
  4  5  2  0
  5  6  1  0
  5  7  1  0
  7  8  2  0
  8  9  1  0
  9 10  2  0
 10 11  1  0
  2 12  1  0
 12 13  1  0
 13 14  1  0
 14 15  1  0
 15 16  1  0
 16 17  1  0
 17 18  1  0
 18 19  2  0
 19 20  1  0
 20 21  2  0
 21 22  1  0
 22 23  2  0
 16 24  1  0
 24 25  1  0
 10  4  1  0
 25 13  1  0
 23 18  1  0
M  END
>  <ChemBL_ID>  (604) 
CHEMBL78059

>  <Compound_Key>  (604) 
16

>  <Ki>  (604) 
207.0

>  <database>  (604) 
CHEMBL

>  <Assay_ChEMBL_ID>  (604) 
CHEMBL805746

>  <Document_ChEMBL_ID>  (604) 
CHEMBL1131000

$$$$

     RDKit          2D

 27 29  0  0  0  0  0  0  0  0999 V2000
    1.2286   -0.4443    0.0000 O   0  0  0  0  0  0  0  0  0  0  0  0
    1.5463   -1.9102    0.0000 C   0  0  0  0  0  0  0  0  0  0  0  0
    2.9748   -2.3680    0.0000 C   0  0  0  0  0  0  0  0  0  0  0  0
    4.0854   -1.3599    0.0000 C   0  0  0  0  0  0  0  0  0  0  0  0
    5.5139   -1.8177    0.0000 C   0  0  0  0  0  0  0  0  0  0  0  0
    6.6246   -0.8095    0.0000 C   0  0  0  0  0  0  0  0  0  0  0  0
    6.3068    0.6564    0.0000 C   0  0  0  0  0  0  0  0  0  0  0  0
    4.8784    1.1142    0.0000 C   0  0  0  0  0  0  0  0  0  0  0  0
    4.5606    2.5802    0.0000 C   0  0  0  0  0  0  0  0  0  0  0  0
    4.2429    4.0462    0.0000 F   0  0  0  0  0  0  0  0  0  0  0  0
    6.0266    2.8980    0.0000 F   0  0  0  0  0  0  0  0  0  0  0  0
    3.0947    2.2625    0.0000 F   0  0  0  0  0  0  0  0  0  0  0  0
    3.7677    0.1061    0.0000 C   0  0  0  0  0  0  0  0  0  0  0  0
    0.4356   -2.9184    0.0000 N   0  0  0  0  0  0  0  0  0  0  0  0
   -0.9928   -2.4606    0.0000 C   0  0  0  0  0  0  0  0  0  0  0  0
   -1.3105   -0.9946    0.0000 C   0  0  0  0  0  0  0  0  0  0  0  0
   -2.7390   -0.5368    0.0000 C   0  0  0  0  0  0  0  0  0  0  0  0
   -3.8496   -1.5450    0.0000 N   0  0  0  0  0  0  0  0  0  0  0  0
   -5.2781   -1.0872    0.0000 C   0  0  0  0  0  0  0  0  0  0  0  0
   -5.5958    0.3788    0.0000 C   0  0  0  0  0  0  0  0  0  0  0  0
   -4.4851    1.3869    0.0000 C   0  0  0  0  0  0  0  0  0  0  0  0
   -4.8029    2.8529    0.0000 C   0  0  0  0  0  0  0  0  0  0  0  0
   -6.2313    3.3107    0.0000 C   0  0  0  0  0  0  0  0  0  0  0  0
   -7.3420    2.3025    0.0000 C   0  0  0  0  0  0  0  0  0  0  0  0
   -7.0243    0.8366    0.0000 C   0  0  0  0  0  0  0  0  0  0  0  0
   -3.5319   -3.0109    0.0000 C   0  0  0  0  0  0  0  0  0  0  0  0
   -2.1035   -3.4687    0.0000 C   0  0  0  0  0  0  0  0  0  0  0  0
  1  2  2  0
  2  3  1  0
  3  4  1  0
  4  5  2  0
  5  6  1  0
  6  7  2  0
  7  8  1  0
  8  9  1  0
  9 10  1  0
  9 11  1  0
  9 12  1  0
  8 13  2  0
  2 14  1  0
 14 15  1  0
 15 16  1  0
 16 17  1  0
 17 18  1  0
 18 19  1  0
 19 20  1  0
 20 21  2  0
 21 22  1  0
 22 23  2  0
 23 24  1  0
 24 25  2  0
 18 26  1  0
 26 27  1  0
 13  4  1  0
 27 15  1  0
 25 20  1  0
M  END
>  <ChemBL_ID>  (605) 
CHEMBL77953

>  <Compound_Key>  (605) 
20

>  <Ki>  (605) 
37.8

>  <database>  (605) 
CHEMBL

>  <Assay_ChEMBL_ID>  (605) 
CHEMBL805746

>  <Document_ChEMBL_ID>  (605) 
CHEMBL1131000

$$$$

     RDKit          2D

 27 29  0  0  0  0  0  0  0  0999 V2000
   -8.6691   -1.8481    0.0000 C   0  0  0  0  0  0  0  0  0  0  0  0
   -7.2208   -2.2386    0.0000 O   0  0  0  0  0  0  0  0  0  0  0  0
   -6.1584   -1.1797    0.0000 C   0  0  0  0  0  0  0  0  0  0  0  0
   -6.5443    0.2698    0.0000 C   0  0  0  0  0  0  0  0  0  0  0  0
   -5.4820    1.3288    0.0000 C   0  0  0  0  0  0  0  0  0  0  0  0
   -4.0337    0.9383    0.0000 C   0  0  0  0  0  0  0  0  0  0  0  0
   -2.9714    1.9972    0.0000 N   0  0  0  0  0  0  0  0  0  0  0  0
   -1.5231    1.6067    0.0000 C   0  0  0  0  0  0  0  0  0  0  0  0
   -1.1372    0.1572    0.0000 O   0  0  0  0  0  0  0  0  0  0  0  0
   -0.4607    2.6656    0.0000 N   0  0  0  0  0  0  0  0  0  0  0  0
    0.9875    2.2751    0.0000 C   0  0  0  0  0  0  0  0  0  0  0  0
    1.3734    0.8256    0.0000 C   0  0  0  0  0  0  0  0  0  0  0  0
    2.8217    0.4350    0.0000 C   0  0  0  0  0  0  0  0  0  0  0  0
    3.8841    1.4940    0.0000 N   0  0  0  0  0  0  0  0  0  0  0  0
    5.3323    1.1035    0.0000 C   0  0  0  0  0  0  0  0  0  0  0  0
    5.7182   -0.3461    0.0000 C   0  0  0  0  0  0  0  0  0  0  0  0
    4.6559   -1.4050    0.0000 C   0  0  0  0  0  0  0  0  0  0  0  0
    5.0418   -2.8545    0.0000 C   0  0  0  0  0  0  0  0  0  0  0  0
    6.4901   -3.2451    0.0000 C   0  0  0  0  0  0  0  0  0  0  0  0
    7.5524   -2.1861    0.0000 C   0  0  0  0  0  0  0  0  0  0  0  0
    7.1665   -0.7366    0.0000 C   0  0  0  0  0  0  0  0  0  0  0  0
    3.4981    2.9435    0.0000 C   0  0  0  0  0  0  0  0  0  0  0  0
    2.0499    3.3341    0.0000 C   0  0  0  0  0  0  0  0  0  0  0  0
   -3.6478   -0.5113    0.0000 C   0  0  0  0  0  0  0  0  0  0  0  0
   -2.1995   -0.9018    0.0000 O   0  0  0  0  0  0  0  0  0  0  0  0
   -1.8136   -2.3513    0.0000 C   0  0  0  0  0  0  0  0  0  0  0  0
   -4.7102   -1.5702    0.0000 C   0  0  0  0  0  0  0  0  0  0  0  0
  1  2  1  0
  2  3  1  0
  3  4  2  0
  4  5  1  0
  5  6  2  0
  6  7  1  0
  7  8  1  0
  8  9  2  0
  8 10  1  0
 10 11  1  0
 11 12  1  0
 12 13  1  0
 13 14  1  0
 14 15  1  0
 15 16  1  0
 16 17  2  0
 17 18  1  0
 18 19  2  0
 19 20  1  0
 20 21  2  0
 14 22  1  0
 22 23  1  0
  6 24  1  0
 24 25  1  0
 25 26  1  0
 24 27  2  0
 27  3  1  0
 23 11  1  0
 21 16  1  0
M  END
>  <ChemBL_ID>  (606) 
CHEMBL77120

>  <Compound_Key>  (606) 
39

>  <Ki>  (606) 
227.0

>  <database>  (606) 
CHEMBL

>  <Assay_ChEMBL_ID>  (606) 
CHEMBL805746

>  <Document_ChEMBL_ID>  (606) 
CHEMBL1131000

$$$$

     RDKit          2D

 24 26  0  0  0  0  0  0  0  0999 V2000
    1.8534    0.3038    0.0000 O   0  0  0  0  0  0  0  0  0  0  0  0
    2.3867   -1.0981    0.0000 C   0  0  0  0  0  0  0  0  0  0  0  0
    3.8675   -1.3373    0.0000 C   0  0  0  0  0  0  0  0  0  0  0  0
    4.8150   -0.1744    0.0000 C   0  0  0  0  0  0  0  0  0  0  0  0
    6.2958   -0.4135    0.0000 C   0  0  0  0  0  0  0  0  0  0  0  0
    7.2433    0.7494    0.0000 C   0  0  0  0  0  0  0  0  0  0  0  0
    6.7100    2.1514    0.0000 C   0  0  0  0  0  0  0  0  0  0  0  0
    5.2292    2.3905    0.0000 C   0  0  0  0  0  0  0  0  0  0  0  0
    4.2817    1.2276    0.0000 C   0  0  0  0  0  0  0  0  0  0  0  0
    2.8009    1.4667    0.0000 F   0  0  0  0  0  0  0  0  0  0  0  0
    1.4392   -2.2610    0.0000 N   0  0  0  0  0  0  0  0  0  0  0  0
   -0.0416   -2.0219    0.0000 C   0  0  0  0  0  0  0  0  0  0  0  0
   -0.5749   -0.6199    0.0000 C   0  0  0  0  0  0  0  0  0  0  0  0
   -2.0557   -0.3808    0.0000 C   0  0  0  0  0  0  0  0  0  0  0  0
   -3.0032   -1.5437    0.0000 N   0  0  0  0  0  0  0  0  0  0  0  0
   -4.4840   -1.3046    0.0000 C   0  0  0  0  0  0  0  0  0  0  0  0
   -5.0174    0.0974    0.0000 C   0  0  0  0  0  0  0  0  0  0  0  0
   -4.0699    1.2603    0.0000 C   0  0  0  0  0  0  0  0  0  0  0  0
   -4.6032    2.6623    0.0000 C   0  0  0  0  0  0  0  0  0  0  0  0
   -6.0840    2.9014    0.0000 C   0  0  0  0  0  0  0  0  0  0  0  0
   -7.0315    1.7385    0.0000 C   0  0  0  0  0  0  0  0  0  0  0  0
   -6.4982    0.3365    0.0000 C   0  0  0  0  0  0  0  0  0  0  0  0
   -2.4699   -2.9457    0.0000 C   0  0  0  0  0  0  0  0  0  0  0  0
   -0.9891   -3.1848    0.0000 C   0  0  0  0  0  0  0  0  0  0  0  0
  1  2  2  0
  2  3  1  0
  3  4  1  0
  4  5  2  0
  5  6  1  0
  6  7  2  0
  7  8  1  0
  8  9  2  0
  9 10  1  0
  2 11  1  0
 11 12  1  0
 12 13  1  0
 13 14  1  0
 14 15  1  0
 15 16  1  0
 16 17  1  0
 17 18  2  0
 18 19  1  0
 19 20  2  0
 20 21  1  0
 21 22  2  0
 15 23  1  0
 23 24  1  0
  9  4  1  0
 24 12  1  0
 22 17  1  0
M  END
>  <ChemBL_ID>  (607) 
CHEMBL76806

>  <Compound_Key>  (607) 
11

>  <Ki>  (607) 
667.0

>  <database>  (607) 
CHEMBL

>  <Assay_ChEMBL_ID>  (607) 
CHEMBL805746

>  <Document_ChEMBL_ID>  (607) 
CHEMBL1131000

$$$$

     RDKit          2D

 26 28  0  0  0  0  0  0  0  0999 V2000
    1.4135   -0.3038    0.0000 O   0  0  0  0  0  0  0  0  0  0  0  0
    1.7740   -1.7598    0.0000 C   0  0  0  0  0  0  0  0  0  0  0  0
    3.2152   -2.1756    0.0000 C   0  0  0  0  0  0  0  0  0  0  0  0
    4.2959   -1.1354    0.0000 C   0  0  0  0  0  0  0  0  0  0  0  0
    5.7372   -1.5511    0.0000 C   0  0  0  0  0  0  0  0  0  0  0  0
    6.8178   -0.5109    0.0000 C   0  0  0  0  0  0  0  0  0  0  0  0
    6.4573    0.9451    0.0000 C   0  0  0  0  0  0  0  0  0  0  0  0
    5.0161    1.3609    0.0000 C   0  0  0  0  0  0  0  0  0  0  0  0
    4.6556    2.8169    0.0000 N   0  0  0  0  0  4  0  0  0  0  0  0
    3.2143    3.2327    0.0000 O   0  0  0  0  0  0  0  0  0  0  0  0
    5.7363    3.8572    0.0000 O   0  0  0  0  0  1  0  0  0  0  0  0
    3.9354    0.3207    0.0000 C   0  0  0  0  0  0  0  0  0  0  0  0
    0.6933   -2.8001    0.0000 N   0  0  0  0  0  0  0  0  0  0  0  0
   -0.7479   -2.3843    0.0000 C   0  0  0  0  0  0  0  0  0  0  0  0
   -1.1084   -0.9282    0.0000 C   0  0  0  0  0  0  0  0  0  0  0  0
   -2.5496   -0.5125    0.0000 C   0  0  0  0  0  0  0  0  0  0  0  0
   -3.6303   -1.5527    0.0000 N   0  0  0  0  0  0  0  0  0  0  0  0
   -5.0716   -1.1369    0.0000 C   0  0  0  0  0  0  0  0  0  0  0  0
   -5.4321    0.3191    0.0000 C   0  0  0  0  0  0  0  0  0  0  0  0
   -4.3514    1.3594    0.0000 C   0  0  0  0  0  0  0  0  0  0  0  0
   -4.7119    2.8154    0.0000 C   0  0  0  0  0  0  0  0  0  0  0  0
   -6.1532    3.2312    0.0000 C   0  0  0  0  0  0  0  0  0  0  0  0
   -7.2338    2.1909    0.0000 C   0  0  0  0  0  0  0  0  0  0  0  0
   -6.8733    0.7349    0.0000 C   0  0  0  0  0  0  0  0  0  0  0  0
   -3.2698   -3.0087    0.0000 C   0  0  0  0  0  0  0  0  0  0  0  0
   -1.8286   -3.4245    0.0000 C   0  0  0  0  0  0  0  0  0  0  0  0
  1  2  2  0
  2  3  1  0
  3  4  1  0
  4  5  2  0
  5  6  1  0
  6  7  2  0
  7  8  1  0
  8  9  1  0
  9 10  2  0
  9 11  1  0
  8 12  2  0
  2 13  1  0
 13 14  1  0
 14 15  1  0
 15 16  1  0
 16 17  1  0
 17 18  1  0
 18 19  1  0
 19 20  2  0
 20 21  1  0
 21 22  2  0
 22 23  1  0
 23 24  2  0
 17 25  1  0
 25 26  1  0
 12  4  1  0
 26 14  1  0
 24 19  1  0
M  CHG  2   9   1  11  -1
M  END
>  <ChemBL_ID>  (608) 
CHEMBL311622

>  <Compound_Key>  (608) 
23

>  <Ki>  (608) 
79.2

>  <database>  (608) 
CHEMBL

>  <Assay_ChEMBL_ID>  (608) 
CHEMBL805746

>  <Document_ChEMBL_ID>  (608) 
CHEMBL1131000

$$$$

     RDKit          2D

 29 31  0  0  0  0  0  0  0  0999 V2000
    0.4104    0.1868    0.0000 O   0  0  0  0  0  0  0  0  0  0  0  0
    0.8710   -1.2407    0.0000 C   0  0  0  0  0  0  0  0  0  0  0  0
    2.3376   -1.5556    0.0000 C   0  0  0  0  0  0  0  0  0  0  0  0
    3.3436   -0.4429    0.0000 C   0  0  0  0  0  0  0  0  0  0  0  0
    2.8830    0.9846    0.0000 C   0  0  0  0  0  0  0  0  0  0  0  0
    3.8889    2.0973    0.0000 C   0  0  0  0  0  0  0  0  0  0  0  0
    5.3555    1.7824    0.0000 C   0  0  0  0  0  0  0  0  0  0  0  0
    6.3615    2.8951    0.0000 N   0  0  0  0  0  4  0  0  0  0  0  0
    7.8281    2.5802    0.0000 O   0  0  0  0  0  0  0  0  0  0  0  0
    5.9009    4.3226    0.0000 O   0  0  0  0  0  1  0  0  0  0  0  0
    5.8161    0.3549    0.0000 C   0  0  0  0  0  0  0  0  0  0  0  0
    4.8102   -0.7578    0.0000 C   0  0  0  0  0  0  0  0  0  0  0  0
    5.2708   -2.1853    0.0000 N   0  0  0  0  0  4  0  0  0  0  0  0
    4.2648   -3.2980    0.0000 O   0  0  0  0  0  0  0  0  0  0  0  0
    6.7374   -2.5002    0.0000 O   0  0  0  0  0  1  0  0  0  0  0  0
   -0.1349   -2.3534    0.0000 N   0  0  0  0  0  0  0  0  0  0  0  0
   -1.6015   -2.0386    0.0000 C   0  0  0  0  0  0  0  0  0  0  0  0
   -2.0621   -0.6110    0.0000 C   0  0  0  0  0  0  0  0  0  0  0  0
   -3.5287   -0.2962    0.0000 C   0  0  0  0  0  0  0  0  0  0  0  0
   -4.5347   -1.4088    0.0000 N   0  0  0  0  0  0  0  0  0  0  0  0
   -6.0013   -1.0940    0.0000 C   0  0  0  0  0  0  0  0  0  0  0  0
   -6.4619    0.3335    0.0000 C   0  0  0  0  0  0  0  0  0  0  0  0
   -5.4559    1.4462    0.0000 C   0  0  0  0  0  0  0  0  0  0  0  0
   -5.9165    2.8737    0.0000 C   0  0  0  0  0  0  0  0  0  0  0  0
   -7.3831    3.1886    0.0000 C   0  0  0  0  0  0  0  0  0  0  0  0
   -8.3891    2.0759    0.0000 C   0  0  0  0  0  0  0  0  0  0  0  0
   -7.9285    0.6484    0.0000 C   0  0  0  0  0  0  0  0  0  0  0  0
   -4.0741   -2.8364    0.0000 C   0  0  0  0  0  0  0  0  0  0  0  0
   -2.6075   -3.1512    0.0000 C   0  0  0  0  0  0  0  0  0  0  0  0
  1  2  2  0
  2  3  1  0
  3  4  1  0
  4  5  2  0
  5  6  1  0
  6  7  2  0
  7  8  1  0
  8  9  2  0
  8 10  1  0
  7 11  1  0
 11 12  2  0
 12 13  1  0
 13 14  2  0
 13 15  1  0
  2 16  1  0
 16 17  1  0
 17 18  1  0
 18 19  1  0
 19 20  1  0
 20 21  1  0
 21 22  1  0
 22 23  2  0
 23 24  1  0
 24 25  2  0
 25 26  1  0
 26 27  2  0
 20 28  1  0
 28 29  1  0
 12  4  1  0
 29 17  1  0
 27 22  1  0
M  CHG  4   8   1  10  -1  13   1  15  -1
M  END
>  <ChemBL_ID>  (609) 
CHEMBL74665

>  <Compound_Key>  (609) 
25

>  <Ki>  (609) 
243.0

>  <database>  (609) 
CHEMBL

>  <Assay_ChEMBL_ID>  (609) 
CHEMBL805746

>  <Document_ChEMBL_ID>  (609) 
CHEMBL1131000

$$$$

     RDKit          2D

 25 27  0  0  0  0  0  0  0  0999 V2000
   -3.5540    2.1462    0.0000 O   0  0  0  0  0  0  0  0  0  0  0  0
   -4.0326    0.7246    0.0000 C   0  0  0  0  0  0  0  0  0  0  0  0
   -3.0408   -0.4007    0.0000 C   0  0  0  0  0  0  0  0  0  0  0  0
   -1.5703   -0.1044    0.0000 C   0  0  0  0  0  0  0  0  0  0  0  0
   -0.5785   -1.2297    0.0000 C   0  0  0  0  0  0  0  0  0  0  0  0
    0.8920   -0.9334    0.0000 N   0  0  0  0  0  0  0  0  0  0  0  0
    1.8838   -2.0587    0.0000 C   0  0  0  0  0  0  0  0  0  0  0  0
    3.3542   -1.7624    0.0000 C   0  0  0  0  0  0  0  0  0  0  0  0
    3.8328   -0.3408    0.0000 N   0  0  0  0  0  0  0  0  0  0  0  0
    5.3033   -0.0445    0.0000 C   0  0  0  0  0  0  0  0  0  0  0  0
    6.2951   -1.1697    0.0000 N   0  0  0  0  0  0  0  0  0  0  0  0
    7.7656   -0.8734    0.0000 C   0  0  0  0  0  0  0  0  0  0  0  0
    8.2442    0.5482    0.0000 C   0  0  0  0  0  0  0  0  0  0  0  0
    9.7146    0.8445    0.0000 F   0  0  0  0  0  0  0  0  0  0  0  0
    7.2523    1.6734    0.0000 C   0  0  0  0  0  0  0  0  0  0  0  0
    5.7819    1.3771    0.0000 N   0  0  0  0  0  0  0  0  0  0  0  0
    2.8410    0.7845    0.0000 C   0  0  0  0  0  0  0  0  0  0  0  0
    1.3706    0.4882    0.0000 C   0  0  0  0  0  0  0  0  0  0  0  0
   -5.5030    0.4283    0.0000 C   0  0  0  0  0  0  0  0  0  0  0  0
   -6.4949    1.5535    0.0000 C   0  0  0  0  0  0  0  0  0  0  0  0
   -7.9653    1.2572    0.0000 C   0  0  0  0  0  0  0  0  0  0  0  0
   -8.4439   -0.1644    0.0000 C   0  0  0  0  0  0  0  0  0  0  0  0
   -9.9144   -0.4607    0.0000 F   0  0  0  0  0  0  0  0  0  0  0  0
   -7.4521   -1.2896    0.0000 C   0  0  0  0  0  0  0  0  0  0  0  0
   -5.9816   -0.9933    0.0000 C   0  0  0  0  0  0  0  0  0  0  0  0
  2  1  1  6
  2  3  1  0
  3  4  1  0
  4  5  1  0
  5  6  1  0
  6  7  1  0
  7  8  1  0
  8  9  1  0
  9 10  1  0
 10 11  2  0
 11 12  1  0
 12 13  2  0
 13 14  1  0
 13 15  1  0
 15 16  2  0
  9 17  1  0
 17 18  1  0
  2 19  1  0
 19 20  2  0
 20 21  1  0
 21 22  2  0
 22 23  1  0
 22 24  1  0
 24 25  2  0
 18  6  1  0
 25 19  1  0
 16 10  1  0
M  END
>  <ChemBL_ID>  (610) 
CHEMBL129768

>  <Compound_Key>  (610) 
(R)-(+)-3c

>  <Ki>  (610) 
1235.0

>  <database>  (610) 
CHEMBL

>  <Assay_ChEMBL_ID>  (610) 
CHEMBL844344

>  <Document_ChEMBL_ID>  (610) 
CHEMBL1126960

$$$$

     RDKit          2D

 27 29  0  0  0  0  0  0  0  0999 V2000
    0.8559    0.7650    0.0000 O   0  0  0  0  0  0  0  0  0  0  0  0
    1.5218   -0.5790    0.0000 C   0  0  0  0  0  0  0  0  0  0  0  0
    3.0188   -0.6744    0.0000 C   0  0  0  0  0  0  0  0  0  0  0  0
    3.8499    0.5743    0.0000 C   0  0  0  0  0  0  0  0  0  0  0  0
    3.1840    1.9184    0.0000 C   0  0  0  0  0  0  0  0  0  0  0  0
    4.0150    3.1672    0.0000 C   0  0  0  0  0  0  0  0  0  0  0  0
    5.5120    3.0718    0.0000 C   0  0  0  0  0  0  0  0  0  0  0  0
    6.1779    1.7277    0.0000 C   0  0  0  0  0  0  0  0  0  0  0  0
    5.3468    0.4790    0.0000 C   0  0  0  0  0  0  0  0  0  0  0  0
    6.0127   -0.8651    0.0000 C   0  0  0  0  0  0  0  0  0  0  0  0
    6.6786   -2.2092    0.0000 F   0  0  0  0  0  0  0  0  0  0  0  0
    7.3568   -0.1992    0.0000 F   0  0  0  0  0  0  0  0  0  0  0  0
    4.6686   -1.5310    0.0000 F   0  0  0  0  0  0  0  0  0  0  0  0
    0.6908   -1.8278    0.0000 N   0  0  0  0  0  0  0  0  0  0  0  0
   -0.8062   -1.7324    0.0000 C   0  0  0  0  0  0  0  0  0  0  0  0
   -1.4721   -0.3883    0.0000 C   0  0  0  0  0  0  0  0  0  0  0  0
   -2.9691   -0.2930    0.0000 C   0  0  0  0  0  0  0  0  0  0  0  0
   -3.8001   -1.5417    0.0000 N   0  0  0  0  0  0  0  0  0  0  0  0
   -5.2971   -1.4463    0.0000 C   0  0  0  0  0  0  0  0  0  0  0  0
   -5.9630   -0.1023    0.0000 C   0  0  0  0  0  0  0  0  0  0  0  0
   -5.1319    1.1465    0.0000 C   0  0  0  0  0  0  0  0  0  0  0  0
   -5.7978    2.4906    0.0000 C   0  0  0  0  0  0  0  0  0  0  0  0
   -7.2948    2.5859    0.0000 C   0  0  0  0  0  0  0  0  0  0  0  0
   -8.1259    1.3372    0.0000 C   0  0  0  0  0  0  0  0  0  0  0  0
   -7.4600   -0.0069    0.0000 C   0  0  0  0  0  0  0  0  0  0  0  0
   -3.1342   -2.8858    0.0000 C   0  0  0  0  0  0  0  0  0  0  0  0
   -1.6373   -2.9811    0.0000 C   0  0  0  0  0  0  0  0  0  0  0  0
  1  2  2  0
  2  3  1  0
  3  4  1  0
  4  5  2  0
  5  6  1  0
  6  7  2  0
  7  8  1  0
  8  9  2  0
  9 10  1  0
 10 11  1  0
 10 12  1  0
 10 13  1  0
  2 14  1  0
 14 15  1  0
 15 16  1  0
 16 17  1  0
 17 18  1  0
 18 19  1  0
 19 20  1  0
 20 21  2  0
 21 22  1  0
 22 23  2  0
 23 24  1  0
 24 25  2  0
 18 26  1  0
 26 27  1  0
  9  4  1  0
 27 15  1  0
 25 20  1  0
M  END
>  <ChemBL_ID>  (611) 
CHEMBL306955

>  <Compound_Key>  (611) 
19

>  <Ki>  (611) 
61.9

>  <database>  (611) 
CHEMBL

>  <Assay_ChEMBL_ID>  (611) 
CHEMBL805746

>  <Document_ChEMBL_ID>  (611) 
CHEMBL1131000

$$$$

     RDKit          2D

 21 22  0  0  0  0  0  0  0  0999 V2000
    0.6124   -3.7402    0.0000 C   0  0  0  0  0  0  0  0  0  0  0  0
    0.3234   -2.2683    0.0000 N   0  0  0  0  0  0  0  0  0  0  0  0
   -1.0957   -1.7826    0.0000 C   0  0  0  0  0  0  0  0  0  0  0  0
   -1.3847   -0.3107    0.0000 C   0  0  0  0  0  0  0  0  0  0  0  0
   -2.8039    0.1750    0.0000 N   0  0  0  0  0  0  0  0  0  0  0  0
   -3.8573   -0.8929    0.0000 C   0  0  0  0  0  0  0  0  0  0  0  0
   -5.3490   -0.7352    0.0000 C   0  0  0  0  0  0  0  0  0  0  0  0
   -6.1557    0.5294    0.0000 C   0  0  0  0  0  0  0  0  0  0  0  0
   -5.6700    1.9486    0.0000 C   0  0  0  0  0  0  0  0  0  0  0  0
   -4.2576    2.4537    0.0000 C   0  0  0  0  0  0  0  0  0  0  0  0
   -2.9821    1.6644    0.0000 C   0  0  0  0  0  0  0  0  0  0  0  0
    1.4537   -1.2821    0.0000 S   0  0  0  0  0  0  0  0  0  0  0  0
    0.4675   -0.1518    0.0000 O   0  0  0  0  0  0  0  0  0  0  0  0
    2.4399   -2.4123    0.0000 O   0  0  0  0  0  0  0  0  0  0  0  0
    2.5839   -0.2959    0.0000 C   0  0  0  0  0  0  0  0  0  0  0  0
    4.0031   -0.7816    0.0000 C   0  0  0  0  0  0  0  0  0  0  0  0
    5.1333    0.2047    0.0000 C   0  0  0  0  0  0  0  0  0  0  0  0
    4.8443    1.6766    0.0000 C   0  0  0  0  0  0  0  0  0  0  0  0
    5.9745    2.6628    0.0000 Br  0  0  0  0  0  0  0  0  0  0  0  0
    3.4251    2.1623    0.0000 C   0  0  0  0  0  0  0  0  0  0  0  0
    2.2949    1.1760    0.0000 C   0  0  0  0  0  0  0  0  0  0  0  0
  1  2  1  0
  2  3  1  0
  3  4  1  0
  4  5  1  0
  5  6  1  0
  6  7  1  0
  7  8  1  0
  8  9  1  0
  9 10  1  0
 10 11  1  0
  2 12  1  0
 12 13  2  0
 12 14  2  0
 12 15  1  0
 15 16  2  0
 16 17  1  0
 17 18  2  0
 18 19  1  0
 18 20  1  0
 20 21  2  0
 11  5  1  0
 21 15  1  0
M  END
>  <ChemBL_ID>  (612) 
CHEMBL309983

>  <Compound_Key>  (612) 
9

>  <Ki>  (612) 
44.4

>  <database>  (612) 
CHEMBL

>  <Assay_ChEMBL_ID>  (612) 
CHEMBL805748

>  <Document_ChEMBL_ID>  (612) 
CHEMBL1131008

$$$$

     RDKit          2D

 18 19  0  0  0  0  0  0  0  0999 V2000
    1.4863    2.2796    0.0000 O   0  0  0  0  0  0  0  0  0  0  0  0
    0.9173    0.8917    0.0000 S   0  0  0  0  0  0  0  0  0  0  0  0
    0.3484   -0.4962    0.0000 O   0  0  0  0  0  0  0  0  0  0  0  0
   -0.4706    1.4606    0.0000 N   0  0  0  0  0  0  0  0  0  0  0  0
   -1.6573    0.5432    0.0000 C   0  0  0  0  0  0  0  0  0  0  0  0
   -3.0452    1.1121    0.0000 C   0  0  0  0  0  0  0  0  0  0  0  0
   -4.2319    0.1946    0.0000 N   0  0  0  0  0  0  0  0  0  0  0  0
   -4.1871   -1.3047    0.0000 C   0  0  0  0  0  0  0  0  0  0  0  0
   -5.5993   -1.8106    0.0000 C   0  0  0  0  0  0  0  0  0  0  0  0
   -6.5167   -0.6239    0.0000 C   0  0  0  0  0  0  0  0  0  0  0  0
   -5.6716    0.6154    0.0000 C   0  0  0  0  0  0  0  0  0  0  0  0
    2.3052    0.3227    0.0000 C   0  0  0  0  0  0  0  0  0  0  0  0
    2.5064   -1.1637    0.0000 C   0  0  0  0  0  0  0  0  0  0  0  0
    3.8943   -1.7327    0.0000 C   0  0  0  0  0  0  0  0  0  0  0  0
    5.0810   -0.8152    0.0000 C   0  0  0  0  0  0  0  0  0  0  0  0
    6.4689   -1.3842    0.0000 Br  0  0  0  0  0  0  0  0  0  0  0  0
    4.8798    0.6712    0.0000 C   0  0  0  0  0  0  0  0  0  0  0  0
    3.4919    1.2402    0.0000 C   0  0  0  0  0  0  0  0  0  0  0  0
  1  2  2  0
  2  3  2  0
  2  4  1  0
  4  5  1  0
  5  6  1  0
  6  7  1  0
  7  8  1  0
  8  9  1  0
  9 10  1  0
 10 11  1  0
  2 12  1  0
 12 13  2  0
 13 14  1  0
 14 15  2  0
 15 16  1  0
 15 17  1  0
 17 18  2  0
 11  7  1  0
 18 12  1  0
M  END
>  <ChemBL_ID>  (613) 
CHEMBL81360

>  <Compound_Key>  (613) 
3

>  <Ki>  (613) 
1487.0

>  <database>  (613) 
CHEMBL

>  <Assay_ChEMBL_ID>  (613) 
CHEMBL805748

>  <Document_ChEMBL_ID>  (613) 
CHEMBL1131008

$$$$

     RDKit          2D

 20 21  0  0  0  0  0  0  0  0999 V2000
    0.9799   -0.3894    0.0000 O   0  0  0  0  0  0  0  0  0  0  0  0
    1.6164    0.9688    0.0000 S   0  0  0  0  0  0  0  0  0  0  0  0
    2.2529    2.3271    0.0000 O   0  0  0  0  0  0  0  0  0  0  0  0
    0.2581    1.6054    0.0000 N   0  0  0  0  0  0  0  0  0  0  0  0
   -0.9723    0.7473    0.0000 C   0  0  0  0  0  0  0  0  0  0  0  0
   -2.3305    1.3838    0.0000 C   0  0  0  0  0  0  0  0  0  0  0  0
   -3.5609    0.5258    0.0000 N   0  0  0  0  0  0  0  0  0  0  0  0
   -3.3216   -0.9550    0.0000 C   0  0  0  0  0  0  0  0  0  0  0  0
   -4.3302   -2.0653    0.0000 C   0  0  0  0  0  0  0  0  0  0  0  0
   -5.8271   -1.9690    0.0000 C   0  0  0  0  0  0  0  0  0  0  0  0
   -6.6852   -0.7387    0.0000 C   0  0  0  0  0  0  0  0  0  0  0  0
   -6.2582    0.6993    0.0000 C   0  0  0  0  0  0  0  0  0  0  0  0
   -4.8678    1.2620    0.0000 C   0  0  0  0  0  0  0  0  0  0  0  0
    2.9746    0.3323    0.0000 C   0  0  0  0  0  0  0  0  0  0  0  0
    3.1025   -1.1622    0.0000 C   0  0  0  0  0  0  0  0  0  0  0  0
    4.4608   -1.7987    0.0000 C   0  0  0  0  0  0  0  0  0  0  0  0
    5.6911   -0.9407    0.0000 C   0  0  0  0  0  0  0  0  0  0  0  0
    7.0494   -1.5772    0.0000 Br  0  0  0  0  0  0  0  0  0  0  0  0
    5.5632    0.5539    0.0000 C   0  0  0  0  0  0  0  0  0  0  0  0
    4.2050    1.1904    0.0000 C   0  0  0  0  0  0  0  0  0  0  0  0
  1  2  2  0
  2  3  2  0
  2  4  1  0
  4  5  1  0
  5  6  1  0
  6  7  1  0
  7  8  1  0
  8  9  1  0
  9 10  1  0
 10 11  1  0
 11 12  1  0
 12 13  1  0
  2 14  1  0
 14 15  2  0
 15 16  1  0
 16 17  2  0
 17 18  1  0
 17 19  1  0
 19 20  2  0
 13  7  1  0
 20 14  1  0
M  END
>  <ChemBL_ID>  (614) 
CHEMBL79660

>  <Compound_Key>  (614) 
7

>  <Ki>  (614) 
198.0

>  <database>  (614) 
CHEMBL

>  <Assay_ChEMBL_ID>  (614) 
CHEMBL805748

>  <Document_ChEMBL_ID>  (614) 
CHEMBL1131008

$$$$

     RDKit          2D

 32 35  0  0  0  0  0  0  0  0999 V2000
   -9.6707   -3.4865    0.0000 C   0  0  0  0  0  0  0  0  0  0  0  0
   -8.5296   -2.5130    0.0000 O   0  0  0  0  0  0  0  0  0  0  0  0
   -8.8021   -1.0379    0.0000 C   0  0  0  0  0  0  0  0  0  0  0  0
  -10.2157   -0.5364    0.0000 C   0  0  0  0  0  0  0  0  0  0  0  0
  -10.4882    0.9386    0.0000 C   0  0  0  0  0  0  0  0  0  0  0  0
   -9.3470    1.9121    0.0000 C   0  0  0  0  0  0  0  0  0  0  0  0
   -7.9334    1.4106    0.0000 C   0  0  0  0  0  0  0  0  0  0  0  0
   -6.6147    2.1256    0.0000 C   0  0  0  0  0  0  0  0  0  0  0  0
   -5.5273    1.0924    0.0000 C   0  0  0  0  0  0  0  0  0  0  0  0
   -4.0522    1.3649    0.0000 C   0  0  0  0  0  0  0  0  0  0  0  0
   -3.5507    2.7786    0.0000 O   0  0  0  0  0  0  0  0  0  0  0  0
   -3.0787    0.2237    0.0000 N   0  0  0  0  0  0  0  0  0  0  0  0
   -1.6037    0.4962    0.0000 C   0  0  0  0  0  0  0  0  0  0  0  0
   -0.6302   -0.6450    0.0000 C   0  0  0  0  0  0  0  0  0  0  0  0
    0.8449   -0.3725    0.0000 C   0  0  0  0  0  0  0  0  0  0  0  0
    1.8184   -1.5137    0.0000 C   0  0  0  0  0  0  0  0  0  0  0  0
    3.2934   -1.2412    0.0000 N   0  0  0  0  0  0  0  0  0  0  0  0
    4.2669   -2.3824    0.0000 C   0  0  0  0  0  0  0  0  0  0  0  0
    5.7420   -2.1099    0.0000 C   0  0  0  0  0  0  0  0  0  0  0  0
    6.2435   -0.6962    0.0000 N   0  0  0  0  0  0  0  0  0  0  0  0
    7.7185   -0.4237    0.0000 C   0  0  0  0  0  0  0  0  0  0  0  0
    8.6921   -1.5649    0.0000 C   0  0  0  0  0  0  0  0  0  0  0  0
   10.1671   -1.2924    0.0000 C   0  0  0  0  0  0  0  0  0  0  0  0
   10.6686    0.1213    0.0000 C   0  0  0  0  0  0  0  0  0  0  0  0
    9.6951    1.2625    0.0000 C   0  0  0  0  0  0  0  0  0  0  0  0
   10.1967    2.6761    0.0000 Cl  0  0  0  0  0  0  0  0  0  0  0  0
    8.2201    0.9900    0.0000 C   0  0  0  0  0  0  0  0  0  0  0  0
    7.2466    2.1311    0.0000 Cl  0  0  0  0  0  0  0  0  0  0  0  0
    5.2700    0.4450    0.0000 C   0  0  0  0  0  0  0  0  0  0  0  0
    3.7950    0.1725    0.0000 C   0  0  0  0  0  0  0  0  0  0  0  0
   -6.1738   -0.2611    0.0000 O   0  0  0  0  0  0  0  0  0  0  0  0
   -7.6609   -0.0644    0.0000 C   0  0  0  0  0  0  0  0  0  0  0  0
  1  2  1  0
  2  3  1  0
  3  4  2  0
  4  5  1  0
  5  6  2  0
  6  7  1  0
  7  8  1  0
  8  9  2  0
  9 10  1  0
 10 11  2  0
 10 12  1  0
 12 13  1  0
 13 14  1  0
 14 15  1  0
 15 16  1  0
 16 17  1  0
 17 18  1  0
 18 19  1  0
 19 20  1  0
 20 21  1  0
 21 22  2  0
 22 23  1  0
 23 24  2  0
 24 25  1  0
 25 26  1  0
 25 27  2  0
 27 28  1  0
 20 29  1  0
 29 30  1  0
  9 31  1  0
 31 32  1  0
 32  3  1  0
 32  7  2  0
 30 17  1  0
 27 21  1  0
M  END
>  <ChemBL_ID>  (615) 
CHEMBL196476

>  <Compound_Key>  (615) 
2 (table 1 Page 7019)

>  <Ki>  (615) 
342.0

>  <database>  (615) 
CHEMBL

>  <Assay_ChEMBL_ID>  (615) 
CHEMBL884776

>  <Document_ChEMBL_ID>  (615) 
CHEMBL1140382

$$$$

     RDKit          2D

 18 19  0  0  0  0  0  0  0  0999 V2000
   -0.0000   -2.5000    0.0000 N   0  0  0  0  0  0  0  0  0  0  0  0
   -0.0000   -1.0000    0.0000 C   0  0  0  0  0  0  0  0  0  0  0  0
    1.2990   -0.2500    0.0000 N   0  0  0  0  0  0  0  0  0  0  0  0
    2.5981   -1.0000    0.0000 C   0  0  0  0  0  0  0  0  0  0  0  0
    3.8971   -0.2500    0.0000 C   0  0  0  0  0  0  0  0  0  0  0  0
    5.1962   -1.0000    0.0000 C   0  0  0  0  0  0  0  0  0  0  0  0
    6.4952   -0.2500    0.0000 C   0  0  0  0  0  0  0  0  0  0  0  0
    6.4952    1.2500    0.0000 C   0  0  0  0  0  0  0  0  0  0  0  0
    5.1962    2.0000    0.0000 C   0  0  0  0  0  0  0  0  0  0  0  0
    3.8971    1.2500    0.0000 C   0  0  0  0  0  0  0  0  0  0  0  0
   -1.2990   -0.2500    0.0000 N   0  0  0  0  0  0  0  0  0  0  0  0
   -2.5981   -1.0000    0.0000 C   0  0  0  0  0  0  0  0  0  0  0  0
   -3.8971   -0.2500    0.0000 C   0  0  0  0  0  0  0  0  0  0  0  0
   -3.8971    1.2500    0.0000 C   0  0  0  0  0  0  0  0  0  0  0  0
   -5.1962    2.0000    0.0000 C   0  0  0  0  0  0  0  0  0  0  0  0
   -6.4952    1.2500    0.0000 C   0  0  0  0  0  0  0  0  0  0  0  0
   -6.4952   -0.2500    0.0000 C   0  0  0  0  0  0  0  0  0  0  0  0
   -5.1962   -1.0000    0.0000 C   0  0  0  0  0  0  0  0  0  0  0  0
  1  2  2  0
  2  3  1  0
  3  4  1  0
  4  5  1  0
  5  6  2  0
  6  7  1  0
  7  8  2  0
  8  9  1  0
  9 10  2  0
  2 11  1  0
 11 12  1  0
 12 13  1  0
 13 14  2  0
 14 15  1  0
 15 16  2  0
 16 17  1  0
 17 18  2  0
 10  5  1  0
 18 13  1  0
M  END
>  <ChemBL_ID>  (616) 
CHEMBL83430

>  <Compound_Key>  (616) 
DTG

>  <Ki>  (616) 
12.8

>  <database>  (616) 
CHEMBL

>  <Assay_ChEMBL_ID>  (616) 
CHEMBL805748

>  <Document_ChEMBL_ID>  (616) 
CHEMBL1131008

$$$$

     RDKit          2D

 18 18  0  0  0  0  0  0  0  0999 V2000
    6.8211    0.2376    0.0000 C   0  0  0  0  0  0  0  0  0  0  0  0
    5.6440   -0.6921    0.0000 C   0  0  0  0  0  0  0  0  0  0  0  0
    4.2502   -0.1376    0.0000 N   0  0  0  0  0  0  0  0  0  0  0  0
    4.0336    1.3467    0.0000 C   0  0  0  0  0  0  0  0  0  0  0  0
    5.2107    2.2764    0.0000 C   0  0  0  0  0  0  0  0  0  0  0  0
    3.0731   -1.0673    0.0000 C   0  0  0  0  0  0  0  0  0  0  0  0
    1.6794   -0.5128    0.0000 C   0  0  0  0  0  0  0  0  0  0  0  0
    0.5023   -1.4426    0.0000 N   0  0  0  0  0  0  0  0  0  0  0  0
   -0.8914   -0.8881    0.0000 S   0  0  0  0  0  0  0  0  0  0  0  0
   -1.4460   -2.2818    0.0000 O   0  0  0  0  0  0  0  0  0  0  0  0
   -0.3369    0.5057    0.0000 O   0  0  0  0  0  0  0  0  0  0  0  0
   -2.2852   -0.3335    0.0000 C   0  0  0  0  0  0  0  0  0  0  0  0
   -3.4623   -1.2633    0.0000 C   0  0  0  0  0  0  0  0  0  0  0  0
   -4.8560   -0.7088    0.0000 C   0  0  0  0  0  0  0  0  0  0  0  0
   -5.0727    0.7755    0.0000 C   0  0  0  0  0  0  0  0  0  0  0  0
   -6.4664    1.3300    0.0000 I   0  0  0  0  0  0  0  0  0  0  0  0
   -3.8956    1.7053    0.0000 C   0  0  0  0  0  0  0  0  0  0  0  0
   -2.5018    1.1507    0.0000 C   0  0  0  0  0  0  0  0  0  0  0  0
  1  2  1  0
  2  3  1  0
  3  4  1  0
  4  5  1  0
  3  6  1  0
  6  7  1  0
  7  8  1  0
  8  9  1  0
  9 10  2  0
  9 11  2  0
  9 12  1  0
 12 13  2  0
 13 14  1  0
 14 15  2  0
 15 16  1  0
 15 17  1  0
 17 18  2  0
 18 12  1  0
M  END
>  <ChemBL_ID>  (617) 
CHEMBL81451

>  <Compound_Key>  (617) 
2

>  <Ki>  (617) 
2393.0

>  <database>  (617) 
CHEMBL

>  <Assay_ChEMBL_ID>  (617) 
CHEMBL805748

>  <Document_ChEMBL_ID>  (617) 
CHEMBL1131008

$$$$

     RDKit          2D

 21 22  0  0  0  0  0  0  0  0999 V2000
    0.6124   -3.7402    0.0000 C   0  0  0  0  0  0  0  0  0  0  0  0
    0.3234   -2.2683    0.0000 N   0  0  0  0  0  0  0  0  0  0  0  0
   -1.0957   -1.7826    0.0000 C   0  0  0  0  0  0  0  0  0  0  0  0
   -1.3847   -0.3107    0.0000 C   0  0  0  0  0  0  0  0  0  0  0  0
   -2.8039    0.1750    0.0000 N   0  0  0  0  0  0  0  0  0  0  0  0
   -3.8573   -0.8929    0.0000 C   0  0  0  0  0  0  0  0  0  0  0  0
   -5.3490   -0.7352    0.0000 C   0  0  0  0  0  0  0  0  0  0  0  0
   -6.1557    0.5294    0.0000 C   0  0  0  0  0  0  0  0  0  0  0  0
   -5.6700    1.9486    0.0000 C   0  0  0  0  0  0  0  0  0  0  0  0
   -4.2576    2.4537    0.0000 C   0  0  0  0  0  0  0  0  0  0  0  0
   -2.9821    1.6644    0.0000 C   0  0  0  0  0  0  0  0  0  0  0  0
    1.4537   -1.2821    0.0000 S   0  0  0  0  0  0  0  0  0  0  0  0
    0.4675   -0.1518    0.0000 O   0  0  0  0  0  0  0  0  0  0  0  0
    2.4399   -2.4123    0.0000 O   0  0  0  0  0  0  0  0  0  0  0  0
    2.5839   -0.2959    0.0000 C   0  0  0  0  0  0  0  0  0  0  0  0
    4.0031   -0.7816    0.0000 C   0  0  0  0  0  0  0  0  0  0  0  0
    5.1333    0.2047    0.0000 C   0  0  0  0  0  0  0  0  0  0  0  0
    4.8443    1.6766    0.0000 C   0  0  0  0  0  0  0  0  0  0  0  0
    5.9745    2.6628    0.0000 I   0  0  0  0  0  0  0  0  0  0  0  0
    3.4251    2.1623    0.0000 C   0  0  0  0  0  0  0  0  0  0  0  0
    2.2949    1.1760    0.0000 C   0  0  0  0  0  0  0  0  0  0  0  0
  1  2  1  0
  2  3  1  0
  3  4  1  0
  4  5  1  0
  5  6  1  0
  6  7  1  0
  7  8  1  0
  8  9  1  0
  9 10  1  0
 10 11  1  0
  2 12  1  0
 12 13  2  0
 12 14  2  0
 12 15  1  0
 15 16  2  0
 16 17  1  0
 17 18  2  0
 18 19  1  0
 18 20  1  0
 20 21  2  0
 11  5  1  0
 21 15  1  0
M  END
>  <ChemBL_ID>  (618) 
CHEMBL81455

>  <Compound_Key>  (618) 
10

>  <Ki>  (618) 
23.5

>  <database>  (618) 
CHEMBL

>  <Assay_ChEMBL_ID>  (618) 
CHEMBL805748

>  <Document_ChEMBL_ID>  (618) 
CHEMBL1131008

$$$$

     RDKit          2D

 20 21  0  0  0  0  0  0  0  0999 V2000
    0.9799   -0.3894    0.0000 O   0  0  0  0  0  0  0  0  0  0  0  0
    1.6164    0.9688    0.0000 S   0  0  0  0  0  0  0  0  0  0  0  0
    2.2529    2.3271    0.0000 O   0  0  0  0  0  0  0  0  0  0  0  0
    0.2581    1.6054    0.0000 N   0  0  0  0  0  0  0  0  0  0  0  0
   -0.9723    0.7473    0.0000 C   0  0  0  0  0  0  0  0  0  0  0  0
   -2.3305    1.3838    0.0000 C   0  0  0  0  0  0  0  0  0  0  0  0
   -3.5609    0.5258    0.0000 N   0  0  0  0  0  0  0  0  0  0  0  0
   -3.3216   -0.9550    0.0000 C   0  0  0  0  0  0  0  0  0  0  0  0
   -4.3302   -2.0653    0.0000 C   0  0  0  0  0  0  0  0  0  0  0  0
   -5.8271   -1.9690    0.0000 C   0  0  0  0  0  0  0  0  0  0  0  0
   -6.6852   -0.7387    0.0000 C   0  0  0  0  0  0  0  0  0  0  0  0
   -6.2582    0.6993    0.0000 C   0  0  0  0  0  0  0  0  0  0  0  0
   -4.8678    1.2620    0.0000 C   0  0  0  0  0  0  0  0  0  0  0  0
    2.9746    0.3323    0.0000 C   0  0  0  0  0  0  0  0  0  0  0  0
    3.1025   -1.1622    0.0000 C   0  0  0  0  0  0  0  0  0  0  0  0
    4.4608   -1.7987    0.0000 C   0  0  0  0  0  0  0  0  0  0  0  0
    5.6911   -0.9407    0.0000 C   0  0  0  0  0  0  0  0  0  0  0  0
    7.0494   -1.5772    0.0000 I   0  0  0  0  0  0  0  0  0  0  0  0
    5.5632    0.5539    0.0000 C   0  0  0  0  0  0  0  0  0  0  0  0
    4.2050    1.1904    0.0000 C   0  0  0  0  0  0  0  0  0  0  0  0
  1  2  2  0
  2  3  2  0
  2  4  1  0
  4  5  1  0
  5  6  1  0
  6  7  1  0
  7  8  1  0
  8  9  1  0
  9 10  1  0
 10 11  1  0
 11 12  1  0
 12 13  1  0
  2 14  1  0
 14 15  2  0
 15 16  1  0
 16 17  2  0
 17 18  1  0
 17 19  1  0
 19 20  2  0
 13  7  1  0
 20 14  1  0
M  END
>  <ChemBL_ID>  (619) 
CHEMBL439765

>  <Compound_Key>  (619) 
8

>  <Ki>  (619) 
189.0

>  <database>  (619) 
CHEMBL

>  <Assay_ChEMBL_ID>  (619) 
CHEMBL805748

>  <Document_ChEMBL_ID>  (619) 
CHEMBL1131008

$$$$

     RDKit          2D

 23 24  0  0  0  0  0  0  0  0999 V2000
    7.0829    1.2815    0.0000 C   0  0  0  0  0  0  0  0  0  0  0  0
    5.7142    1.8950    0.0000 O   0  0  0  0  0  0  0  0  0  0  0  0
    4.4984    1.0164    0.0000 C   0  0  0  0  0  0  0  0  0  0  0  0
    4.6514   -0.4758    0.0000 C   0  0  0  0  0  0  0  0  0  0  0  0
    3.4357   -1.3544    0.0000 C   0  0  0  0  0  0  0  0  0  0  0  0
    2.0669   -0.7408    0.0000 C   0  0  0  0  0  0  0  0  0  0  0  0
    0.8512   -1.6194    0.0000 S   0  0  0  0  0  0  0  0  0  0  0  0
   -0.0274   -0.4037    0.0000 O   0  0  0  0  0  0  0  0  0  0  0  0
    1.7298   -2.8352    0.0000 O   0  0  0  0  0  0  0  0  0  0  0  0
   -0.3646   -2.4981    0.0000 N   0  0  0  0  0  0  0  0  0  0  0  0
   -0.2115   -3.9902    0.0000 C   0  0  0  0  0  0  0  0  0  0  0  0
   -1.7333   -1.8845    0.0000 C   0  0  0  0  0  0  0  0  0  0  0  0
   -1.8864   -0.3923    0.0000 C   0  0  0  0  0  0  0  0  0  0  0  0
   -3.2551    0.2212    0.0000 N   0  0  0  0  0  0  0  0  0  0  0  0
   -4.4018   -0.7458    0.0000 C   0  0  0  0  0  0  0  0  0  0  0  0
   -5.8728   -0.4522    0.0000 C   0  0  0  0  0  0  0  0  0  0  0  0
   -6.5604    0.8809    0.0000 C   0  0  0  0  0  0  0  0  0  0  0  0
   -5.9469    2.2497    0.0000 C   0  0  0  0  0  0  0  0  0  0  0  0
   -4.4942    2.6234    0.0000 C   0  0  0  0  0  0  0  0  0  0  0  0
   -3.2962    1.7207    0.0000 C   0  0  0  0  0  0  0  0  0  0  0  0
    1.9139    0.7513    0.0000 C   0  0  0  0  0  0  0  0  0  0  0  0
    3.1296    1.6300    0.0000 C   0  0  0  0  0  0  0  0  0  0  0  0
    2.9766    3.1221    0.0000 I   0  0  0  0  0  0  0  0  0  0  0  0
  1  2  1  0
  2  3  1  0
  3  4  2  0
  4  5  1  0
  5  6  2  0
  6  7  1  0
  7  8  2  0
  7  9  2  0
  7 10  1  0
 10 11  1  0
 10 12  1  0
 12 13  1  0
 13 14  1  0
 14 15  1  0
 15 16  1  0
 16 17  1  0
 17 18  1  0
 18 19  1  0
 19 20  1  0
  6 21  1  0
 21 22  2  0
 22 23  1  0
 22  3  1  0
 20 14  1  0
M  END
>  <ChemBL_ID>  (620) 
CHEMBL83448

>  <Compound_Key>  (620) 
12

>  <Ki>  (620) 
337.0

>  <database>  (620) 
CHEMBL

>  <Assay_ChEMBL_ID>  (620) 
CHEMBL805748

>  <Document_ChEMBL_ID>  (620) 
CHEMBL1131008

$$$$

     RDKit          2D

 19 20  0  0  0  0  0  0  0  0999 V2000
   -0.6691    0.4395    0.0000 O   0  0  0  0  0  0  0  0  0  0  0  0
   -1.2736   -0.9333    0.0000 S   0  0  0  0  0  0  0  0  0  0  0  0
   -1.8781   -2.3061    0.0000 O   0  0  0  0  0  0  0  0  0  0  0  0
    0.0992   -1.5378    0.0000 N   0  0  0  0  0  0  0  0  0  0  0  0
    1.3091   -0.6512    0.0000 C   0  0  0  0  0  0  0  0  0  0  0  0
    2.6819   -1.2557    0.0000 C   0  0  0  0  0  0  0  0  0  0  0  0
    3.8918   -0.3691    0.0000 N   0  0  0  0  0  0  0  0  0  0  0  0
    5.2646   -0.9736    0.0000 C   0  0  0  0  0  0  0  0  0  0  0  0
    6.4745   -0.0870    0.0000 C   0  0  0  0  0  0  0  0  0  0  0  0
    6.3117    1.4041    0.0000 C   0  0  0  0  0  0  0  0  0  0  0  0
    4.9389    2.0087    0.0000 C   0  0  0  0  0  0  0  0  0  0  0  0
    3.7290    1.1220    0.0000 C   0  0  0  0  0  0  0  0  0  0  0  0
   -2.6464   -0.3288    0.0000 C   0  0  0  0  0  0  0  0  0  0  0  0
   -2.8093    1.1624    0.0000 C   0  0  0  0  0  0  0  0  0  0  0  0
   -4.1821    1.7669    0.0000 C   0  0  0  0  0  0  0  0  0  0  0  0
   -5.3920    0.8803    0.0000 C   0  0  0  0  0  0  0  0  0  0  0  0
   -6.7648    1.4848    0.0000 Br  0  0  0  0  0  0  0  0  0  0  0  0
   -5.2291   -0.6108    0.0000 C   0  0  0  0  0  0  0  0  0  0  0  0
   -3.8563   -1.2154    0.0000 C   0  0  0  0  0  0  0  0  0  0  0  0
  1  2  2  0
  2  3  2  0
  2  4  1  0
  4  5  1  0
  5  6  1  0
  6  7  1  0
  7  8  1  0
  8  9  1  0
  9 10  1  0
 10 11  1  0
 11 12  1  0
  2 13  1  0
 13 14  2  0
 14 15  1  0
 15 16  2  0
 16 17  1  0
 16 18  1  0
 18 19  2  0
 12  7  1  0
 19 13  1  0
M  END
>  <ChemBL_ID>  (621) 
CHEMBL79841

>  <Compound_Key>  (621) 
5

>  <Ki>  (621) 
459.0

>  <database>  (621) 
CHEMBL

>  <Assay_ChEMBL_ID>  (621) 
CHEMBL805748

>  <Document_ChEMBL_ID>  (621) 
CHEMBL1131008

$$$$

     RDKit          2D

 18 19  0  0  0  0  0  0  0  0999 V2000
    1.4863    2.2796    0.0000 O   0  0  0  0  0  0  0  0  0  0  0  0
    0.9173    0.8917    0.0000 S   0  0  0  0  0  0  0  0  0  0  0  0
    0.3484   -0.4962    0.0000 O   0  0  0  0  0  0  0  0  0  0  0  0
   -0.4706    1.4606    0.0000 N   0  0  0  0  0  0  0  0  0  0  0  0
   -1.6573    0.5432    0.0000 C   0  0  0  0  0  0  0  0  0  0  0  0
   -3.0452    1.1121    0.0000 C   0  0  0  0  0  0  0  0  0  0  0  0
   -4.2319    0.1946    0.0000 N   0  0  0  0  0  0  0  0  0  0  0  0
   -4.1871   -1.3047    0.0000 C   0  0  0  0  0  0  0  0  0  0  0  0
   -5.5993   -1.8106    0.0000 C   0  0  0  0  0  0  0  0  0  0  0  0
   -6.5167   -0.6239    0.0000 C   0  0  0  0  0  0  0  0  0  0  0  0
   -5.6716    0.6154    0.0000 C   0  0  0  0  0  0  0  0  0  0  0  0
    2.3052    0.3227    0.0000 C   0  0  0  0  0  0  0  0  0  0  0  0
    2.5064   -1.1637    0.0000 C   0  0  0  0  0  0  0  0  0  0  0  0
    3.8943   -1.7327    0.0000 C   0  0  0  0  0  0  0  0  0  0  0  0
    5.0810   -0.8152    0.0000 C   0  0  0  0  0  0  0  0  0  0  0  0
    6.4689   -1.3842    0.0000 I   0  0  0  0  0  0  0  0  0  0  0  0
    4.8798    0.6712    0.0000 C   0  0  0  0  0  0  0  0  0  0  0  0
    3.4919    1.2402    0.0000 C   0  0  0  0  0  0  0  0  0  0  0  0
  1  2  2  0
  2  3  2  0
  2  4  1  0
  4  5  1  0
  5  6  1  0
  6  7  1  0
  7  8  1  0
  8  9  1  0
  9 10  1  0
 10 11  1  0
  2 12  1  0
 12 13  2  0
 13 14  1  0
 14 15  2  0
 15 16  1  0
 15 17  1  0
 17 18  2  0
 11  7  1  0
 18 12  1  0
M  END
>  <ChemBL_ID>  (622) 
CHEMBL79840

>  <Compound_Key>  (622) 
4

>  <Ki>  (622) 
1002.0

>  <database>  (622) 
CHEMBL

>  <Assay_ChEMBL_ID>  (622) 
CHEMBL805748

>  <Document_ChEMBL_ID>  (622) 
CHEMBL1131008

$$$$

     RDKit          2D

 19 20  0  0  0  0  0  0  0  0999 V2000
   -0.6691    0.4395    0.0000 O   0  0  0  0  0  0  0  0  0  0  0  0
   -1.2736   -0.9333    0.0000 S   0  0  0  0  0  0  0  0  0  0  0  0
   -1.8781   -2.3061    0.0000 O   0  0  0  0  0  0  0  0  0  0  0  0
    0.0992   -1.5378    0.0000 N   0  0  0  0  0  0  0  0  0  0  0  0
    1.3091   -0.6512    0.0000 C   0  0  0  0  0  0  0  0  0  0  0  0
    2.6819   -1.2557    0.0000 C   0  0  0  0  0  0  0  0  0  0  0  0
    3.8918   -0.3691    0.0000 N   0  0  0  0  0  0  0  0  0  0  0  0
    5.2646   -0.9736    0.0000 C   0  0  0  0  0  0  0  0  0  0  0  0
    6.4745   -0.0870    0.0000 C   0  0  0  0  0  0  0  0  0  0  0  0
    6.3117    1.4041    0.0000 C   0  0  0  0  0  0  0  0  0  0  0  0
    4.9389    2.0087    0.0000 C   0  0  0  0  0  0  0  0  0  0  0  0
    3.7290    1.1220    0.0000 C   0  0  0  0  0  0  0  0  0  0  0  0
   -2.6464   -0.3288    0.0000 C   0  0  0  0  0  0  0  0  0  0  0  0
   -2.8093    1.1624    0.0000 C   0  0  0  0  0  0  0  0  0  0  0  0
   -4.1821    1.7669    0.0000 C   0  0  0  0  0  0  0  0  0  0  0  0
   -5.3920    0.8803    0.0000 C   0  0  0  0  0  0  0  0  0  0  0  0
   -6.7648    1.4848    0.0000 I   0  0  0  0  0  0  0  0  0  0  0  0
   -5.2291   -0.6108    0.0000 C   0  0  0  0  0  0  0  0  0  0  0  0
   -3.8563   -1.2154    0.0000 C   0  0  0  0  0  0  0  0  0  0  0  0
  1  2  2  0
  2  3  2  0
  2  4  1  0
  4  5  1  0
  5  6  1  0
  6  7  1  0
  7  8  1  0
  8  9  1  0
  9 10  1  0
 10 11  1  0
 11 12  1  0
  2 13  1  0
 13 14  2  0
 14 15  1  0
 15 16  2  0
 16 17  1  0
 16 18  1  0
 18 19  2  0
 12  7  1  0
 19 13  1  0
M  END
>  <ChemBL_ID>  (623) 
CHEMBL81500

>  <Compound_Key>  (623) 
6

>  <Ki>  (623) 
206.0

>  <database>  (623) 
CHEMBL

>  <Assay_ChEMBL_ID>  (623) 
CHEMBL805748

>  <Document_ChEMBL_ID>  (623) 
CHEMBL1131008

$$$$

     RDKit          2D

 18 18  0  0  0  0  0  0  0  0999 V2000
    6.8211    0.2376    0.0000 C   0  0  0  0  0  0  0  0  0  0  0  0
    5.6440   -0.6921    0.0000 C   0  0  0  0  0  0  0  0  0  0  0  0
    4.2502   -0.1376    0.0000 N   0  0  0  0  0  0  0  0  0  0  0  0
    4.0336    1.3467    0.0000 C   0  0  0  0  0  0  0  0  0  0  0  0
    5.2107    2.2764    0.0000 C   0  0  0  0  0  0  0  0  0  0  0  0
    3.0731   -1.0673    0.0000 C   0  0  0  0  0  0  0  0  0  0  0  0
    1.6794   -0.5128    0.0000 C   0  0  0  0  0  0  0  0  0  0  0  0
    0.5023   -1.4426    0.0000 N   0  0  0  0  0  0  0  0  0  0  0  0
   -0.8914   -0.8881    0.0000 S   0  0  0  0  0  0  0  0  0  0  0  0
   -1.4460   -2.2818    0.0000 O   0  0  0  0  0  0  0  0  0  0  0  0
   -0.3369    0.5057    0.0000 O   0  0  0  0  0  0  0  0  0  0  0  0
   -2.2852   -0.3335    0.0000 C   0  0  0  0  0  0  0  0  0  0  0  0
   -3.4623   -1.2633    0.0000 C   0  0  0  0  0  0  0  0  0  0  0  0
   -4.8560   -0.7088    0.0000 C   0  0  0  0  0  0  0  0  0  0  0  0
   -5.0727    0.7755    0.0000 C   0  0  0  0  0  0  0  0  0  0  0  0
   -6.4664    1.3300    0.0000 Br  0  0  0  0  0  0  0  0  0  0  0  0
   -3.8956    1.7053    0.0000 C   0  0  0  0  0  0  0  0  0  0  0  0
   -2.5018    1.1507    0.0000 C   0  0  0  0  0  0  0  0  0  0  0  0
  1  2  1  0
  2  3  1  0
  3  4  1  0
  4  5  1  0
  3  6  1  0
  6  7  1  0
  7  8  1  0
  8  9  1  0
  9 10  2  0
  9 11  2  0
  9 12  1  0
 12 13  2  0
 13 14  1  0
 14 15  2  0
 15 16  1  0
 15 17  1  0
 17 18  2  0
 18 12  1  0
M  END
>  <ChemBL_ID>  (624) 
CHEMBL81389

>  <Compound_Key>  (624) 
1

>  <Ki>  (624) 
2826.0

>  <database>  (624) 
CHEMBL

>  <Assay_ChEMBL_ID>  (624) 
CHEMBL805748

>  <Document_ChEMBL_ID>  (624) 
CHEMBL1131008

$$$$

     RDKit          2D

 21 22  0  0  0  0  0  0  0  0999 V2000
    6.3679   -2.7333    0.0000 C   0  0  0  0  0  0  0  0  0  0  0  0
    6.1645   -1.2471    0.0000 O   0  0  0  0  0  0  0  0  0  0  0  0
    4.7757   -0.6802    0.0000 C   0  0  0  0  0  0  0  0  0  0  0  0
    3.5904   -1.5994    0.0000 C   0  0  0  0  0  0  0  0  0  0  0  0
    2.2017   -1.0324    0.0000 C   0  0  0  0  0  0  0  0  0  0  0  0
    1.9983    0.4537    0.0000 C   0  0  0  0  0  0  0  0  0  0  0  0
    0.6096    1.0206    0.0000 S   0  0  0  0  0  0  0  0  0  0  0  0
    1.1765    2.4094    0.0000 O   0  0  0  0  0  0  0  0  0  0  0  0
    0.0426   -0.3681    0.0000 O   0  0  0  0  0  0  0  0  0  0  0  0
   -0.7792    1.5876    0.0000 N   0  0  0  0  0  0  0  0  0  0  0  0
   -1.9645    0.6684    0.0000 C   0  0  0  0  0  0  0  0  0  0  0  0
   -3.3533    1.2353    0.0000 C   0  0  0  0  0  0  0  0  0  0  0  0
   -4.5386    0.3161    0.0000 N   0  0  0  0  0  0  0  0  0  0  0  0
   -5.9274    0.8831    0.0000 C   0  0  0  0  0  0  0  0  0  0  0  0
   -7.1127   -0.0362    0.0000 C   0  0  0  0  0  0  0  0  0  0  0  0
   -6.9093   -1.5223    0.0000 C   0  0  0  0  0  0  0  0  0  0  0  0
   -5.5206   -2.0892    0.0000 C   0  0  0  0  0  0  0  0  0  0  0  0
   -4.3352   -1.1700    0.0000 C   0  0  0  0  0  0  0  0  0  0  0  0
    3.1836    1.3729    0.0000 C   0  0  0  0  0  0  0  0  0  0  0  0
    4.5724    0.8060    0.0000 C   0  0  0  0  0  0  0  0  0  0  0  0
    5.7577    1.7252    0.0000 I   0  0  0  0  0  0  0  0  0  0  0  0
  1  2  1  0
  2  3  1  0
  3  4  2  0
  4  5  1  0
  5  6  2  0
  6  7  1  0
  7  8  2  0
  7  9  2  0
  7 10  1  0
 10 11  1  0
 11 12  1  0
 12 13  1  0
 13 14  1  0
 14 15  1  0
 15 16  1  0
 16 17  1  0
 17 18  1  0
  6 19  1  0
 19 20  2  0
 20 21  1  0
 20  3  1  0
 18 13  1  0
M  END
>  <ChemBL_ID>  (625) 
CHEMBL82081

>  <Compound_Key>  (625) 
11

>  <Ki>  (625) 
449.0

>  <database>  (625) 
CHEMBL

>  <Assay_ChEMBL_ID>  (625) 
CHEMBL805748

>  <Document_ChEMBL_ID>  (625) 
CHEMBL1131008

$$$$

     RDKit          2D

 25 26  0  0  0  0  0  0  0  0999 V2000
    9.5513    0.6888    0.0000 C   0  0  0  0  0  0  0  0  0  0  0  0
    8.1738    1.2824    0.0000 C   0  0  0  0  0  0  0  0  0  0  0  0
    6.9710    0.3862    0.0000 N   0  0  0  0  0  0  0  0  0  0  0  0
    7.1457   -1.1035    0.0000 C   0  0  0  0  0  0  0  0  0  0  0  0
    8.5232   -1.6971    0.0000 C   0  0  0  0  0  0  0  0  0  0  0  0
    5.5934    0.9798    0.0000 C   0  0  0  0  0  0  0  0  0  0  0  0
    4.3906    0.0837    0.0000 C   0  0  0  0  0  0  0  0  0  0  0  0
    3.0130    0.6772    0.0000 O   0  0  0  0  0  0  0  0  0  0  0  0
    1.8102   -0.2189    0.0000 C   0  0  0  0  0  0  0  0  0  0  0  0
    0.4326    0.3746    0.0000 C   0  0  0  0  0  0  0  0  0  0  0  0
   -0.7702   -0.5215    0.0000 O   0  0  0  0  0  0  0  0  0  0  0  0
   -2.1478    0.0720    0.0000 C   0  0  0  0  0  0  0  0  0  0  0  0
   -2.3225    1.5618    0.0000 O   0  0  0  0  0  0  0  0  0  0  0  0
   -3.3506   -0.8241    0.0000 C   0  0  0  0  0  0  0  0  0  0  0  0
   -4.0243    0.5160    0.0000 C   0  0  0  0  0  0  0  0  0  0  0  0
   -3.2005    1.7696    0.0000 C   0  0  0  0  0  0  0  0  0  0  0  0
   -3.8743    3.1098    0.0000 C   0  0  0  0  0  0  0  0  0  0  0  0
   -5.3717    3.1964    0.0000 C   0  0  0  0  0  0  0  0  0  0  0  0
   -6.1955    1.9429    0.0000 C   0  0  0  0  0  0  0  0  0  0  0  0
   -5.5218    0.6027    0.0000 C   0  0  0  0  0  0  0  0  0  0  0  0
   -4.7874   -1.2549    0.0000 C   0  0  0  0  0  0  0  0  0  0  0  0
   -5.1328   -2.7146    0.0000 C   0  0  0  0  0  0  0  0  0  0  0  0
   -4.0414   -3.7435    0.0000 C   0  0  0  0  0  0  0  0  0  0  0  0
   -2.6045   -3.3128    0.0000 C   0  0  0  0  0  0  0  0  0  0  0  0
   -2.2592   -1.8531    0.0000 C   0  0  0  0  0  0  0  0  0  0  0  0
  1  2  1  0
  2  3  1  0
  3  4  1  0
  4  5  1  0
  3  6  1  0
  6  7  1  0
  7  8  1  0
  8  9  1  0
  9 10  1  0
 10 11  1  0
 11 12  1  0
 12 13  2  0
 12 14  1  0
 14 15  1  0
 15 16  2  0
 16 17  1  0
 17 18  2  0
 18 19  1  0
 19 20  2  0
 14 21  1  0
 21 22  1  0
 22 23  1  0
 23 24  1  0
 24 25  1  0
 25 14  1  0
 20 15  1  0
M  END
>  <ChemBL_ID>  (626) 
CHEMBL74736

>  <Compound_Key>  (626) 
33

>  <Ki>  (626) 
780.0

>  <database>  (626) 
CHEMBL

>  <Assay_ChEMBL_ID>  (626) 
CHEMBL805749

>  <Document_ChEMBL_ID>  (626) 
CHEMBL1127585

$$$$

     RDKit          2D

 27 29  0  0  0  0  0  0  0  0999 V2000
   -2.0679    2.8082    0.0000 O   0  0  0  0  0  0  0  0  0  0  0  0
   -2.3092    1.3277    0.0000 C   0  0  0  0  0  0  0  0  0  0  0  0
   -1.1478    0.3785    0.0000 O   0  0  0  0  0  0  0  0  0  0  0  0
    0.2550    0.9097    0.0000 C   0  0  0  0  0  0  0  0  0  0  0  0
    1.4164   -0.0396    0.0000 O   0  0  0  0  0  0  0  0  0  0  0  0
    2.8192    0.4916    0.0000 C   0  0  0  0  0  0  0  0  0  0  0  0
    3.9806   -0.4576    0.0000 C   0  0  0  0  0  0  0  0  0  0  0  0
    5.3834    0.0736    0.0000 N   0  0  0  0  0  0  0  0  0  0  0  0
    6.5449   -0.8757    0.0000 C   0  0  0  0  0  0  0  0  0  0  0  0
    7.9477   -0.3445    0.0000 C   0  0  0  0  0  0  0  0  0  0  0  0
    8.1890    1.1360    0.0000 O   0  0  0  0  0  0  0  0  0  0  0  0
    7.0276    2.0852    0.0000 C   0  0  0  0  0  0  0  0  0  0  0  0
    5.6248    1.5540    0.0000 C   0  0  0  0  0  0  0  0  0  0  0  0
   -3.7120    0.7965    0.0000 C   0  0  0  0  0  0  0  0  0  0  0  0
   -2.9453   -0.4927    0.0000 C   0  0  0  0  0  0  0  0  0  0  0  0
   -3.6784   -1.8013    0.0000 C   0  0  0  0  0  0  0  0  0  0  0  0
   -2.9117   -3.0906    0.0000 C   0  0  0  0  0  0  0  0  0  0  0  0
   -1.4119   -3.0712    0.0000 C   0  0  0  0  0  0  0  0  0  0  0  0
   -0.6451   -4.3604    0.0000 Cl  0  0  0  0  0  0  0  0  0  0  0  0
   -0.6787   -1.7626    0.0000 C   0  0  0  0  0  0  0  0  0  0  0  0
    0.8212   -1.7432    0.0000 Cl  0  0  0  0  0  0  0  0  0  0  0  0
   -1.4454   -0.4733    0.0000 C   0  0  0  0  0  0  0  0  0  0  0  0
   -3.9916    2.2703    0.0000 C   0  0  0  0  0  0  0  0  0  0  0  0
   -5.4076    2.7650    0.0000 C   0  0  0  0  0  0  0  0  0  0  0  0
   -6.5441    1.7861    0.0000 C   0  0  0  0  0  0  0  0  0  0  0  0
   -6.2646    0.3124    0.0000 C   0  0  0  0  0  0  0  0  0  0  0  0
   -4.8485   -0.1824    0.0000 C   0  0  0  0  0  0  0  0  0  0  0  0
  1  2  2  0
  2  3  1  0
  3  4  1  0
  4  5  1  0
  5  6  1  0
  6  7  1  0
  7  8  1  0
  8  9  1  0
  9 10  1  0
 10 11  1  0
 11 12  1  0
 12 13  1  0
  2 14  1  0
 14 15  1  0
 15 16  2  0
 16 17  1  0
 17 18  2  0
 18 19  1  0
 18 20  1  0
 20 21  1  0
 20 22  2  0
 14 23  1  0
 23 24  1  0
 24 25  1  0
 25 26  1  0
 26 27  1  0
 13  8  1  0
 27 14  1  0
 22 15  1  0
M  END
>  <ChemBL_ID>  (627) 
CHEMBL307628

>  <Compound_Key>  (627) 
22

>  <Ki>  (627) 
981.0

>  <database>  (627) 
CHEMBL

>  <Assay_ChEMBL_ID>  (627) 
CHEMBL805749

>  <Document_ChEMBL_ID>  (627) 
CHEMBL1127585

$$$$

     RDKit          2D

 26 27  0  0  0  0  0  0  0  0999 V2000
    9.2342    0.2483    0.0000 C   0  0  0  0  0  0  0  0  0  0  0  0
    7.9868   -0.5846    0.0000 C   0  0  0  0  0  0  0  0  0  0  0  0
    6.6417    0.0792    0.0000 N   0  0  0  0  0  0  0  0  0  0  0  0
    6.5440    1.5760    0.0000 C   0  0  0  0  0  0  0  0  0  0  0  0
    7.7915    2.4090    0.0000 C   0  0  0  0  0  0  0  0  0  0  0  0
    5.3942   -0.7538    0.0000 C   0  0  0  0  0  0  0  0  0  0  0  0
    4.0491   -0.0899    0.0000 C   0  0  0  0  0  0  0  0  0  0  0  0
    2.8016   -0.9229    0.0000 O   0  0  0  0  0  0  0  0  0  0  0  0
    1.4565   -0.2590    0.0000 C   0  0  0  0  0  0  0  0  0  0  0  0
    0.2091   -1.0920    0.0000 O   0  0  0  0  0  0  0  0  0  0  0  0
   -1.1360   -0.4281    0.0000 C   0  0  0  0  0  0  0  0  0  0  0  0
   -1.2337    1.0687    0.0000 O   0  0  0  0  0  0  0  0  0  0  0  0
   -2.3835   -1.2611    0.0000 C   0  0  0  0  0  0  0  0  0  0  0  0
   -2.9872    0.1120    0.0000 C   0  0  0  0  0  0  0  0  0  0  0  0
   -2.0999    1.3214    0.0000 C   0  0  0  0  0  0  0  0  0  0  0  0
   -2.7036    2.6946    0.0000 C   0  0  0  0  0  0  0  0  0  0  0  0
   -4.1946    2.8583    0.0000 C   0  0  0  0  0  0  0  0  0  0  0  0
   -4.7983    4.2315    0.0000 Cl  0  0  0  0  0  0  0  0  0  0  0  0
   -5.0819    1.6490    0.0000 C   0  0  0  0  0  0  0  0  0  0  0  0
   -6.5730    1.8127    0.0000 Cl  0  0  0  0  0  0  0  0  0  0  0  0
   -4.4782    0.2758    0.0000 C   0  0  0  0  0  0  0  0  0  0  0  0
   -3.8406   -1.6172    0.0000 C   0  0  0  0  0  0  0  0  0  0  0  0
   -4.2608   -3.0571    0.0000 C   0  0  0  0  0  0  0  0  0  0  0  0
   -3.2239   -4.1410    0.0000 C   0  0  0  0  0  0  0  0  0  0  0  0
   -1.7668   -3.7849    0.0000 C   0  0  0  0  0  0  0  0  0  0  0  0
   -1.3466   -2.3450    0.0000 C   0  0  0  0  0  0  0  0  0  0  0  0
  1  2  1  0
  2  3  1  0
  3  4  1  0
  4  5  1  0
  3  6  1  0
  6  7  1  0
  7  8  1  0
  8  9  1  0
  9 10  1  0
 10 11  1  0
 11 12  2  0
 11 13  1  0
 13 14  1  0
 14 15  2  0
 15 16  1  0
 16 17  2  0
 17 18  1  0
 17 19  1  0
 19 20  1  0
 19 21  2  0
 13 22  1  0
 22 23  1  0
 23 24  1  0
 24 25  1  0
 25 26  1  0
 26 13  1  0
 21 14  1  0
M  END
>  <ChemBL_ID>  (628) 
CHEMBL75217

>  <Compound_Key>  (628) 
20

>  <Ki>  (628) 
667.0

>  <database>  (628) 
CHEMBL

>  <Assay_ChEMBL_ID>  (628) 
CHEMBL805749

>  <Document_ChEMBL_ID>  (628) 
CHEMBL1127585

$$$$

     RDKit          2D

 24 25  0  0  0  0  0  0  0  0999 V2000
   -9.4080   -0.7889    0.0000 C   0  0  0  0  0  0  0  0  0  0  0  0
   -8.0173   -1.3511    0.0000 C   0  0  0  0  0  0  0  0  0  0  0  0
   -6.8351   -0.4279    0.0000 N   0  0  0  0  0  0  0  0  0  0  0  0
   -7.0436    1.0576    0.0000 C   0  0  0  0  0  0  0  0  0  0  0  0
   -8.4342    1.6198    0.0000 C   0  0  0  0  0  0  0  0  0  0  0  0
   -5.4445   -0.9901    0.0000 C   0  0  0  0  0  0  0  0  0  0  0  0
   -4.2623   -0.0668    0.0000 C   0  0  0  0  0  0  0  0  0  0  0  0
   -2.8716   -0.6290    0.0000 O   0  0  0  0  0  0  0  0  0  0  0  0
   -1.6894    0.2942    0.0000 C   0  0  0  0  0  0  0  0  0  0  0  0
   -0.2987   -0.2680    0.0000 C   0  0  0  0  0  0  0  0  0  0  0  0
    0.8835    0.6552    0.0000 N   0  0  0  0  0  0  0  0  0  0  0  0
    2.2741    0.0930    0.0000 C   0  0  0  0  0  0  0  0  0  0  0  0
    2.4826   -1.3924    0.0000 O   0  0  0  0  0  0  0  0  0  0  0  0
    3.4564    1.0162    0.0000 C   0  0  0  0  0  0  0  0  0  0  0  0
    4.2510   -0.2560    0.0000 C   0  0  0  0  0  0  0  0  0  0  0  0
    3.5465   -1.5803    0.0000 C   0  0  0  0  0  0  0  0  0  0  0  0
    4.3411   -2.8525    0.0000 C   0  0  0  0  0  0  0  0  0  0  0  0
    5.8402   -2.8005    0.0000 C   0  0  0  0  0  0  0  0  0  0  0  0
    6.5447   -1.4762    0.0000 C   0  0  0  0  0  0  0  0  0  0  0  0
    5.7501   -0.2040    0.0000 C   0  0  0  0  0  0  0  0  0  0  0  0
    2.4146    2.0955    0.0000 C   0  0  0  0  0  0  0  0  0  0  0  0
    3.1191    3.4197    0.0000 C   0  0  0  0  0  0  0  0  0  0  0  0
    4.5963    3.1590    0.0000 C   0  0  0  0  0  0  0  0  0  0  0  0
    4.8047    1.6735    0.0000 C   0  0  0  0  0  0  0  0  0  0  0  0
  1  2  1  0
  2  3  1  0
  3  4  1  0
  4  5  1  0
  3  6  1  0
  6  7  1  0
  7  8  1  0
  8  9  1  0
  9 10  1  0
 10 11  1  0
 11 12  1  0
 12 13  2  0
 12 14  1  0
 14 15  1  0
 15 16  2  0
 16 17  1  0
 17 18  2  0
 18 19  1  0
 19 20  2  0
 14 21  1  0
 21 22  1  0
 22 23  1  0
 23 24  1  0
 24 14  1  0
 20 15  1  0
M  END
>  <ChemBL_ID>  (629) 
CHEMBL440686

>  <Compound_Key>  (629) 
40

>  <Ki>  (629) 
2840.0

>  <database>  (629) 
CHEMBL

>  <Assay_ChEMBL_ID>  (629) 
CHEMBL805749

>  <Document_ChEMBL_ID>  (629) 
CHEMBL1127585

$$$$

     RDKit          2D

 24 25  0  0  0  0  0  0  0  0999 V2000
   -9.4080   -0.7889    0.0000 C   0  0  0  0  0  0  0  0  0  0  0  0
   -8.0173   -1.3511    0.0000 C   0  0  0  0  0  0  0  0  0  0  0  0
   -6.8351   -0.4279    0.0000 N   0  0  0  0  0  0  0  0  0  0  0  0
   -7.0436    1.0576    0.0000 C   0  0  0  0  0  0  0  0  0  0  0  0
   -8.4342    1.6198    0.0000 C   0  0  0  0  0  0  0  0  0  0  0  0
   -5.4445   -0.9901    0.0000 C   0  0  0  0  0  0  0  0  0  0  0  0
   -4.2623   -0.0668    0.0000 C   0  0  0  0  0  0  0  0  0  0  0  0
   -2.8716   -0.6290    0.0000 O   0  0  0  0  0  0  0  0  0  0  0  0
   -1.6894    0.2942    0.0000 C   0  0  0  0  0  0  0  0  0  0  0  0
   -0.2987   -0.2680    0.0000 C   0  0  0  0  0  0  0  0  0  0  0  0
    0.8835    0.6552    0.0000 O   0  0  0  0  0  0  0  0  0  0  0  0
    2.2741    0.0930    0.0000 C   0  0  0  0  0  0  0  0  0  0  0  0
    2.4826   -1.3924    0.0000 O   0  0  0  0  0  0  0  0  0  0  0  0
    3.4564    1.0162    0.0000 C   0  0  0  0  0  0  0  0  0  0  0  0
    4.2510   -0.2560    0.0000 C   0  0  0  0  0  0  0  0  0  0  0  0
    3.5465   -1.5803    0.0000 C   0  0  0  0  0  0  0  0  0  0  0  0
    4.3411   -2.8525    0.0000 C   0  0  0  0  0  0  0  0  0  0  0  0
    5.8402   -2.8005    0.0000 C   0  0  0  0  0  0  0  0  0  0  0  0
    6.5447   -1.4762    0.0000 C   0  0  0  0  0  0  0  0  0  0  0  0
    5.7501   -0.2040    0.0000 C   0  0  0  0  0  0  0  0  0  0  0  0
    2.4146    2.0955    0.0000 C   0  0  0  0  0  0  0  0  0  0  0  0
    3.1191    3.4197    0.0000 C   0  0  0  0  0  0  0  0  0  0  0  0
    4.5963    3.1590    0.0000 C   0  0  0  0  0  0  0  0  0  0  0  0
    4.8047    1.6735    0.0000 C   0  0  0  0  0  0  0  0  0  0  0  0
  1  2  1  0
  2  3  1  0
  3  4  1  0
  4  5  1  0
  3  6  1  0
  6  7  1  0
  7  8  1  0
  8  9  1  0
  9 10  1  0
 10 11  1  0
 11 12  1  0
 12 13  2  0
 12 14  1  0
 14 15  1  0
 15 16  2  0
 16 17  1  0
 17 18  2  0
 18 19  1  0
 19 20  2  0
 14 21  1  0
 21 22  1  0
 22 23  1  0
 23 24  1  0
 24 14  1  0
 20 15  1  0
M  END
>  <ChemBL_ID>  (630) 
CHEMBL73234

>  <Compound_Key>  (630) 
1

>  <Ki>  (630) 
894.0

>  <database>  (630) 
CHEMBL

>  <Assay_ChEMBL_ID>  (630) 
CHEMBL805749

>  <Document_ChEMBL_ID>  (630) 
CHEMBL1127585

$$$$

     RDKit          2D

 26 27  0  0  0  0  0  0  0  0999 V2000
    9.2342    0.2483    0.0000 C   0  0  0  0  0  0  0  0  0  0  0  0
    7.9868   -0.5846    0.0000 C   0  0  0  0  0  0  0  0  0  0  0  0
    6.6417    0.0792    0.0000 N   0  0  0  0  0  0  0  0  0  0  0  0
    6.5440    1.5760    0.0000 C   0  0  0  0  0  0  0  0  0  0  0  0
    7.7915    2.4090    0.0000 C   0  0  0  0  0  0  0  0  0  0  0  0
    5.3942   -0.7538    0.0000 C   0  0  0  0  0  0  0  0  0  0  0  0
    4.0491   -0.0899    0.0000 C   0  0  0  0  0  0  0  0  0  0  0  0
    2.8016   -0.9229    0.0000 O   0  0  0  0  0  0  0  0  0  0  0  0
    1.4565   -0.2590    0.0000 C   0  0  0  0  0  0  0  0  0  0  0  0
    0.2091   -1.0920    0.0000 N   0  0  0  0  0  0  0  0  0  0  0  0
   -1.1360   -0.4281    0.0000 C   0  0  0  0  0  0  0  0  0  0  0  0
   -1.2337    1.0687    0.0000 O   0  0  0  0  0  0  0  0  0  0  0  0
   -2.3835   -1.2611    0.0000 C   0  0  0  0  0  0  0  0  0  0  0  0
   -2.9872    0.1120    0.0000 C   0  0  0  0  0  0  0  0  0  0  0  0
   -2.0999    1.3214    0.0000 C   0  0  0  0  0  0  0  0  0  0  0  0
   -2.7036    2.6946    0.0000 C   0  0  0  0  0  0  0  0  0  0  0  0
   -4.1946    2.8583    0.0000 C   0  0  0  0  0  0  0  0  0  0  0  0
   -4.7983    4.2315    0.0000 Cl  0  0  0  0  0  0  0  0  0  0  0  0
   -5.0819    1.6490    0.0000 C   0  0  0  0  0  0  0  0  0  0  0  0
   -6.5730    1.8127    0.0000 Cl  0  0  0  0  0  0  0  0  0  0  0  0
   -4.4782    0.2758    0.0000 C   0  0  0  0  0  0  0  0  0  0  0  0
   -3.8406   -1.6172    0.0000 C   0  0  0  0  0  0  0  0  0  0  0  0
   -4.2608   -3.0571    0.0000 C   0  0  0  0  0  0  0  0  0  0  0  0
   -3.2239   -4.1410    0.0000 C   0  0  0  0  0  0  0  0  0  0  0  0
   -1.7668   -3.7849    0.0000 C   0  0  0  0  0  0  0  0  0  0  0  0
   -1.3466   -2.3450    0.0000 C   0  0  0  0  0  0  0  0  0  0  0  0
  1  2  1  0
  2  3  1  0
  3  4  1  0
  4  5  1  0
  3  6  1  0
  6  7  1  0
  7  8  1  0
  8  9  1  0
  9 10  1  0
 10 11  1  0
 11 12  2  0
 11 13  1  0
 13 14  1  0
 14 15  2  0
 15 16  1  0
 16 17  2  0
 17 18  1  0
 17 19  1  0
 19 20  1  0
 19 21  2  0
 13 22  1  0
 22 23  1  0
 23 24  1  0
 24 25  1  0
 25 26  1  0
 26 13  1  0
 21 14  1  0
M  END
>  <ChemBL_ID>  (631) 
CHEMBL73501

>  <Compound_Key>  (631) 
38

>  <Ki>  (631) 
527.0

>  <database>  (631) 
CHEMBL

>  <Assay_ChEMBL_ID>  (631) 
CHEMBL805749

>  <Document_ChEMBL_ID>  (631) 
CHEMBL1127585

$$$$

     RDKit          2D

 25 26  0  0  0  0  0  0  0  0999 V2000
   -9.6365   -1.0509    0.0000 C   0  0  0  0  0  0  0  0  0  0  0  0
   -8.2224   -1.5514    0.0000 C   0  0  0  0  0  0  0  0  0  0  0  0
   -7.0820   -0.5771    0.0000 N   0  0  0  0  0  0  0  0  0  0  0  0
   -7.3556    0.8978    0.0000 C   0  0  0  0  0  0  0  0  0  0  0  0
   -8.7696    1.3983    0.0000 C   0  0  0  0  0  0  0  0  0  0  0  0
   -5.6679   -1.0776    0.0000 C   0  0  0  0  0  0  0  0  0  0  0  0
   -4.5275   -0.1032    0.0000 C   0  0  0  0  0  0  0  0  0  0  0  0
   -3.1134   -0.6037    0.0000 O   0  0  0  0  0  0  0  0  0  0  0  0
   -1.9730    0.3707    0.0000 C   0  0  0  0  0  0  0  0  0  0  0  0
   -0.5589   -0.1298    0.0000 C   0  0  0  0  0  0  0  0  0  0  0  0
    0.5815    0.8445    0.0000 O   0  0  0  0  0  0  0  0  0  0  0  0
    1.9956    0.3440    0.0000 C   0  0  0  0  0  0  0  0  0  0  0  0
    2.2691   -1.1308    0.0000 O   0  0  0  0  0  0  0  0  0  0  0  0
    3.1360    1.3184    0.0000 C   0  0  0  0  0  0  0  0  0  0  0  0
    3.9858    0.0823    0.0000 C   0  0  0  0  0  0  0  0  0  0  0  0
    3.3403   -1.2716    0.0000 C   0  0  0  0  0  0  0  0  0  0  0  0
    4.1901   -2.5077    0.0000 C   0  0  0  0  0  0  0  0  0  0  0  0
    5.6854   -2.3898    0.0000 C   0  0  0  0  0  0  0  0  0  0  0  0
    6.5352   -3.6258    0.0000 Cl  0  0  0  0  0  0  0  0  0  0  0  0
    6.3310   -1.0358    0.0000 C   0  0  0  0  0  0  0  0  0  0  0  0
    5.4812    0.2003    0.0000 C   0  0  0  0  0  0  0  0  0  0  0  0
    2.0478    2.3507    0.0000 C   0  0  0  0  0  0  0  0  0  0  0  0
    2.6933    3.7047    0.0000 C   0  0  0  0  0  0  0  0  0  0  0  0
    4.1805    3.5092    0.0000 C   0  0  0  0  0  0  0  0  0  0  0  0
    4.4541    2.0343    0.0000 C   0  0  0  0  0  0  0  0  0  0  0  0
  1  2  1  0
  2  3  1  0
  3  4  1  0
  4  5  1  0
  3  6  1  0
  6  7  1  0
  7  8  1  0
  8  9  1  0
  9 10  1  0
 10 11  1  0
 11 12  1  0
 12 13  2  0
 12 14  1  0
 14 15  1  0
 15 16  2  0
 16 17  1  0
 17 18  2  0
 18 19  1  0
 18 20  1  0
 20 21  2  0
 14 22  1  0
 22 23  1  0
 23 24  1  0
 24 25  1  0
 25 14  1  0
 21 15  1  0
M  END
>  <ChemBL_ID>  (632) 
CHEMBL72219

>  <Compound_Key>  (632) 
36

>  <Ki>  (632) 
648.0

>  <database>  (632) 
CHEMBL

>  <Assay_ChEMBL_ID>  (632) 
CHEMBL805749

>  <Document_ChEMBL_ID>  (632) 
CHEMBL1127585

$$$$

     RDKit          2D

 18 20  0  0  0  0  0  0  0  0999 V2000
   -5.5450    1.9074    0.0000 C   0  0  0  0  0  0  0  0  0  0  0  0
   -4.1173    1.4473    0.0000 C   0  0  0  0  0  0  0  0  0  0  0  0
   -3.8019   -0.0191    0.0000 C   0  0  0  0  0  0  0  0  0  0  0  0
   -2.3742   -0.4792    0.0000 N   0  0  0  0  0  0  0  0  0  0  0  0
   -2.0588   -1.9457    0.0000 C   0  0  0  0  0  0  0  0  0  0  0  0
   -0.6311   -2.4057    0.0000 C   0  0  0  0  0  0  0  0  0  0  0  0
    0.4812   -1.3993    0.0000 C   0  0  0  0  0  0  0  0  0  0  0  0
    1.5935   -0.3929    0.0000 C   0  0  0  0  0  0  0  0  0  0  0  0
    3.0212   -0.8530    0.0000 C   0  0  0  0  0  0  0  0  0  0  0  0
    4.1335    0.1534    0.0000 C   0  0  0  0  0  0  0  0  0  0  0  0
    5.5612   -0.3067    0.0000 O   0  0  0  0  0  0  0  0  0  0  0  0
    3.8181    1.6199    0.0000 C   0  0  0  0  0  0  0  0  0  0  0  0
    2.3903    2.0799    0.0000 C   0  0  0  0  0  0  0  0  0  0  0  0
    1.2781    1.0735    0.0000 C   0  0  0  0  0  0  0  0  0  0  0  0
   -0.1496    1.5336    0.0000 C   0  0  0  0  0  0  0  0  0  0  0  0
   -1.2619    0.5272    0.0000 C   0  0  0  0  0  0  0  0  0  0  0  0
   -0.9465   -0.9393    0.0000 C   0  0  0  0  0  0  0  0  0  0  0  0
   -1.3906   -1.6012    0.0000 C   0  0  0  0  0  0  0  0  0  0  0  0
  1  2  2  0
  2  3  1  0
  3  4  1  0
  4  5  1  0
  5  6  1  0
  6  7  1  0
  7  8  1  0
  8  9  2  0
  9 10  1  0
 10 11  1  0
 10 12  2  0
 12 13  1  0
 13 14  2  0
 14 15  1  0
 15 16  1  0
 16 17  1  0
 17 18  1  0
 16  4  1  0
 17  7  1  0
 14  8  1  0
M  END
>  <ChemBL_ID>  (633) 
CHEMBL147585

>  <Compound_Key>  (633) 
SKF-10047

>  <Ki>  (633) 
44.0

>  <database>  (633) 
CHEMBL

>  <Assay_ChEMBL_ID>  (633) 
CHEMBL805750

>  <Document_ChEMBL_ID>  (633) 
CHEMBL1127585

$$$$

     RDKit          2D

 24 26  0  0  0  0  0  0  0  0999 V2000
   -3.1747    2.1441    0.0000 O   0  0  0  0  0  0  0  0  0  0  0  0
   -3.6365    0.7170    0.0000 C   0  0  0  0  0  0  0  0  0  0  0  0
   -2.6315   -0.3965    0.0000 C   0  0  0  0  0  0  0  0  0  0  0  0
   -1.1646   -0.0829    0.0000 C   0  0  0  0  0  0  0  0  0  0  0  0
   -0.1596   -1.1965    0.0000 C   0  0  0  0  0  0  0  0  0  0  0  0
    1.3072   -0.8829    0.0000 N   0  0  0  0  0  0  0  0  0  0  0  0
    2.3122   -1.9964    0.0000 C   0  0  0  0  0  0  0  0  0  0  0  0
    3.7791   -1.6828    0.0000 C   0  0  0  0  0  0  0  0  0  0  0  0
    4.2409   -0.2557    0.0000 N   0  0  0  0  0  0  0  0  0  0  0  0
    5.7078    0.0579    0.0000 C   0  0  0  0  0  0  0  0  0  0  0  0
    6.7128   -1.0556    0.0000 C   0  0  0  0  0  0  0  0  0  0  0  0
    8.1796   -0.7420    0.0000 C   0  0  0  0  0  0  0  0  0  0  0  0
    8.6415    0.6851    0.0000 C   0  0  0  0  0  0  0  0  0  0  0  0
    7.6365    1.7986    0.0000 C   0  0  0  0  0  0  0  0  0  0  0  0
    6.1696    1.4850    0.0000 N   0  0  0  0  0  0  0  0  0  0  0  0
    3.2359    0.8578    0.0000 C   0  0  0  0  0  0  0  0  0  0  0  0
    1.7691    0.5443    0.0000 C   0  0  0  0  0  0  0  0  0  0  0  0
   -5.1034    0.4034    0.0000 C   0  0  0  0  0  0  0  0  0  0  0  0
   -6.1084    1.5169    0.0000 C   0  0  0  0  0  0  0  0  0  0  0  0
   -7.5752    1.2034    0.0000 C   0  0  0  0  0  0  0  0  0  0  0  0
   -8.0371   -0.2238    0.0000 C   0  0  0  0  0  0  0  0  0  0  0  0
   -9.5039   -0.5374    0.0000 F   0  0  0  0  0  0  0  0  0  0  0  0
   -7.0321   -1.3373    0.0000 C   0  0  0  0  0  0  0  0  0  0  0  0
   -5.5652   -1.0237    0.0000 C   0  0  0  0  0  0  0  0  0  0  0  0
  2  1  1  6
  2  3  1  0
  3  4  1  0
  4  5  1  0
  5  6  1  0
  6  7  1  0
  7  8  1  0
  8  9  1  0
  9 10  1  0
 10 11  2  0
 11 12  1  0
 12 13  2  0
 13 14  1  0
 14 15  2  0
  9 16  1  0
 16 17  1  0
  2 18  1  0
 18 19  2  0
 19 20  1  0
 20 21  2  0
 21 22  1  0
 21 23  1  0
 23 24  2  0
 17  6  1  0
 24 18  1  0
 15 10  1  0
M  END
>  <ChemBL_ID>  (634) 
CHEMBL339033

>  <Compound_Key>  (634) 
(R)-(+)-3b

>  <Ki>  (634) 
280.0

>  <database>  (634) 
CHEMBL

>  <Assay_ChEMBL_ID>  (634) 
CHEMBL844344

>  <Document_ChEMBL_ID>  (634) 
CHEMBL1126960

$$$$

     RDKit          2D

 27 29  0  0  0  0  0  0  0  0999 V2000
   -2.0679    2.8082    0.0000 O   0  0  0  0  0  0  0  0  0  0  0  0
   -2.3092    1.3277    0.0000 C   0  0  0  0  0  0  0  0  0  0  0  0
   -1.1478    0.3785    0.0000 N   0  0  0  0  0  0  0  0  0  0  0  0
    0.2550    0.9097    0.0000 C   0  0  0  0  0  0  0  0  0  0  0  0
    1.4164   -0.0396    0.0000 O   0  0  0  0  0  0  0  0  0  0  0  0
    2.8192    0.4916    0.0000 C   0  0  0  0  0  0  0  0  0  0  0  0
    3.9806   -0.4576    0.0000 C   0  0  0  0  0  0  0  0  0  0  0  0
    5.3834    0.0736    0.0000 N   0  0  0  0  0  0  0  0  0  0  0  0
    6.5449   -0.8757    0.0000 C   0  0  0  0  0  0  0  0  0  0  0  0
    7.9477   -0.3445    0.0000 C   0  0  0  0  0  0  0  0  0  0  0  0
    8.1890    1.1360    0.0000 O   0  0  0  0  0  0  0  0  0  0  0  0
    7.0276    2.0852    0.0000 C   0  0  0  0  0  0  0  0  0  0  0  0
    5.6248    1.5540    0.0000 C   0  0  0  0  0  0  0  0  0  0  0  0
   -3.7120    0.7965    0.0000 C   0  0  0  0  0  0  0  0  0  0  0  0
   -2.9453   -0.4927    0.0000 C   0  0  0  0  0  0  0  0  0  0  0  0
   -3.6784   -1.8013    0.0000 C   0  0  0  0  0  0  0  0  0  0  0  0
   -2.9117   -3.0906    0.0000 C   0  0  0  0  0  0  0  0  0  0  0  0
   -1.4119   -3.0712    0.0000 C   0  0  0  0  0  0  0  0  0  0  0  0
   -0.6451   -4.3604    0.0000 Cl  0  0  0  0  0  0  0  0  0  0  0  0
   -0.6787   -1.7626    0.0000 C   0  0  0  0  0  0  0  0  0  0  0  0
    0.8212   -1.7432    0.0000 Cl  0  0  0  0  0  0  0  0  0  0  0  0
   -1.4454   -0.4733    0.0000 C   0  0  0  0  0  0  0  0  0  0  0  0
   -3.9916    2.2703    0.0000 C   0  0  0  0  0  0  0  0  0  0  0  0
   -5.4076    2.7650    0.0000 C   0  0  0  0  0  0  0  0  0  0  0  0
   -6.5441    1.7861    0.0000 C   0  0  0  0  0  0  0  0  0  0  0  0
   -6.2646    0.3124    0.0000 C   0  0  0  0  0  0  0  0  0  0  0  0
   -4.8485   -0.1824    0.0000 C   0  0  0  0  0  0  0  0  0  0  0  0
  1  2  2  0
  2  3  1  0
  3  4  1  0
  4  5  1  0
  5  6  1  0
  6  7  1  0
  7  8  1  0
  8  9  1  0
  9 10  1  0
 10 11  1  0
 11 12  1  0
 12 13  1  0
  2 14  1  0
 14 15  1  0
 15 16  2  0
 16 17  1  0
 17 18  2  0
 18 19  1  0
 18 20  1  0
 20 21  1  0
 20 22  2  0
 14 23  1  0
 23 24  1  0
 24 25  1  0
 25 26  1  0
 26 27  1  0
 13  8  1  0
 27 14  1  0
 22 15  1  0
M  END
>  <ChemBL_ID>  (635) 
CHEMBL307668

>  <Compound_Key>  (635) 
39

>  <Ki>  (635) 
1640.0

>  <database>  (635) 
CHEMBL

>  <Assay_ChEMBL_ID>  (635) 
CHEMBL805749

>  <Document_ChEMBL_ID>  (635) 
CHEMBL1127585

$$$$

     RDKit          2D

 26 28  0  0  0  0  0  0  0  0999 V2000
   -1.2387    1.0689    0.0000 O   0  0  0  0  0  0  0  0  0  0  0  0
   -1.1511   -0.4285    0.0000 C   0  0  0  0  0  0  0  0  0  0  0  0
    0.1895   -1.1014    0.0000 O   0  0  0  0  0  0  0  0  0  0  0  0
    1.4425   -0.2769    0.0000 C   0  0  0  0  0  0  0  0  0  0  0  0
    2.7831   -0.9498    0.0000 O   0  0  0  0  0  0  0  0  0  0  0  0
    4.0362   -0.1252    0.0000 C   0  0  0  0  0  0  0  0  0  0  0  0
    5.3768   -0.7981    0.0000 C   0  0  0  0  0  0  0  0  0  0  0  0
    6.6298    0.0264    0.0000 N   0  0  0  0  0  0  0  0  0  0  0  0
    6.6993    1.5248    0.0000 C   0  0  0  0  0  0  0  0  0  0  0  0
    8.1458    1.9218    0.0000 C   0  0  0  0  0  0  0  0  0  0  0  0
    8.9703    0.6687    0.0000 C   0  0  0  0  0  0  0  0  0  0  0  0
    8.0334   -0.5027    0.0000 C   0  0  0  0  0  0  0  0  0  0  0  0
   -2.4042   -1.2530    0.0000 C   0  0  0  0  0  0  0  0  0  0  0  0
   -2.9986    0.1241    0.0000 C   0  0  0  0  0  0  0  0  0  0  0  0
   -2.1031    1.3275    0.0000 C   0  0  0  0  0  0  0  0  0  0  0  0
   -2.6975    2.7047    0.0000 C   0  0  0  0  0  0  0  0  0  0  0  0
   -4.1874    2.8785    0.0000 C   0  0  0  0  0  0  0  0  0  0  0  0
   -4.7819    4.2557    0.0000 Cl  0  0  0  0  0  0  0  0  0  0  0  0
   -5.0829    1.6752    0.0000 C   0  0  0  0  0  0  0  0  0  0  0  0
   -6.5728    1.8490    0.0000 Cl  0  0  0  0  0  0  0  0  0  0  0  0
   -4.4885    0.2980    0.0000 C   0  0  0  0  0  0  0  0  0  0  0  0
   -3.8637   -1.5993    0.0000 C   0  0  0  0  0  0  0  0  0  0  0  0
   -4.2935   -3.0364    0.0000 C   0  0  0  0  0  0  0  0  0  0  0  0
   -3.2639   -4.1272    0.0000 C   0  0  0  0  0  0  0  0  0  0  0  0
   -1.8045   -3.7810    0.0000 C   0  0  0  0  0  0  0  0  0  0  0  0
   -1.3746   -2.3439    0.0000 C   0  0  0  0  0  0  0  0  0  0  0  0
  1  2  2  0
  2  3  1  0
  3  4  1  0
  4  5  1  0
  5  6  1  0
  6  7  1  0
  7  8  1  0
  8  9  1  0
  9 10  1  0
 10 11  1  0
 11 12  1  0
  2 13  1  0
 13 14  1  0
 14 15  2  0
 15 16  1  0
 16 17  2  0
 17 18  1  0
 17 19  1  0
 19 20  1  0
 19 21  2  0
 13 22  1  0
 22 23  1  0
 23 24  1  0
 24 25  1  0
 25 26  1  0
 12  8  1  0
 26 13  1  0
 21 14  1  0
M  END
>  <ChemBL_ID>  (636) 
CHEMBL73017

>  <Compound_Key>  (636) 
21

>  <Ki>  (636) 
688.0

>  <database>  (636) 
CHEMBL

>  <Assay_ChEMBL_ID>  (636) 
CHEMBL805749

>  <Document_ChEMBL_ID>  (636) 
CHEMBL1127585

$$$$

     RDKit          2D

 24 25  0  0  0  0  0  0  0  0999 V2000
   -8.9853    0.8291    0.0000 C   0  0  0  0  0  0  0  0  0  0  0  0
   -7.5571    1.2877    0.0000 C   0  0  0  0  0  0  0  0  0  0  0  0
   -6.4459    0.2802    0.0000 N   0  0  0  0  0  0  0  0  0  0  0  0
   -6.7628   -1.1859    0.0000 C   0  0  0  0  0  0  0  0  0  0  0  0
   -8.1909   -1.6445    0.0000 C   0  0  0  0  0  0  0  0  0  0  0  0
   -5.0177    0.7388    0.0000 C   0  0  0  0  0  0  0  0  0  0  0  0
   -3.9064   -0.2687    0.0000 C   0  0  0  0  0  0  0  0  0  0  0  0
   -2.4783    0.1900    0.0000 O   0  0  0  0  0  0  0  0  0  0  0  0
   -1.3670   -0.8176    0.0000 C   0  0  0  0  0  0  0  0  0  0  0  0
    0.0612   -0.3589    0.0000 C   0  0  0  0  0  0  0  0  0  0  0  0
    1.1724   -1.3664    0.0000 N   0  0  0  0  0  0  0  0  0  0  0  0
    0.8555   -2.8326    0.0000 C   0  0  0  0  0  0  0  0  0  0  0  0
    2.6006   -0.9078    0.0000 C   0  0  0  0  0  0  0  0  0  0  0  0
    2.9175    0.5583    0.0000 C   0  0  0  0  0  0  0  0  0  0  0  0
    4.3425    0.0899    0.0000 C   0  0  0  0  0  0  0  0  0  0  0  0
    4.6493   -1.3784    0.0000 C   0  0  0  0  0  0  0  0  0  0  0  0
    6.0743   -1.8468    0.0000 C   0  0  0  0  0  0  0  0  0  0  0  0
    7.1925   -0.8469    0.0000 C   0  0  0  0  0  0  0  0  0  0  0  0
    6.8856    0.6214    0.0000 C   0  0  0  0  0  0  0  0  0  0  0  0
    5.4607    1.0898    0.0000 C   0  0  0  0  0  0  0  0  0  0  0  0
    1.4263    0.7202    0.0000 C   0  0  0  0  0  0  0  0  0  0  0  0
    1.1194    2.1885    0.0000 C   0  0  0  0  0  0  0  0  0  0  0  0
    2.4211    2.9341    0.0000 C   0  0  0  0  0  0  0  0  0  0  0  0
    3.5323    1.9265    0.0000 C   0  0  0  0  0  0  0  0  0  0  0  0
  1  2  1  0
  2  3  1  0
  3  4  1  0
  4  5  1  0
  3  6  1  0
  6  7  1  0
  7  8  1  0
  8  9  1  0
  9 10  1  0
 10 11  1  0
 11 12  1  0
 11 13  1  0
 13 14  1  0
 14 15  1  0
 15 16  2  0
 16 17  1  0
 17 18  2  0
 18 19  1  0
 19 20  2  0
 14 21  1  0
 21 22  1  0
 22 23  1  0
 23 24  1  0
 24 14  1  0
 20 15  1  0
M  END
>  <ChemBL_ID>  (637) 
CHEMBL451542

>  <Compound_Key>  (637) 
43

>  <Ki>  (637) 
1100.0

>  <database>  (637) 
CHEMBL

>  <Assay_ChEMBL_ID>  (637) 
CHEMBL805749

>  <Document_ChEMBL_ID>  (637) 
CHEMBL1127585

$$$$

     RDKit          2D

 22 23  0  0  0  0  0  0  0  0999 V2000
   -9.2091   -0.8325    0.0000 C   0  0  0  0  0  0  0  0  0  0  0  0
   -7.8091   -1.3709    0.0000 C   0  0  0  0  0  0  0  0  0  0  0  0
   -6.6428   -0.4276    0.0000 N   0  0  0  0  0  0  0  0  0  0  0  0
   -6.8765    1.0541    0.0000 C   0  0  0  0  0  0  0  0  0  0  0  0
   -8.2766    1.5925    0.0000 C   0  0  0  0  0  0  0  0  0  0  0  0
   -5.2428   -0.9660    0.0000 C   0  0  0  0  0  0  0  0  0  0  0  0
   -4.0765   -0.0228    0.0000 C   0  0  0  0  0  0  0  0  0  0  0  0
   -2.6764   -0.5612    0.0000 O   0  0  0  0  0  0  0  0  0  0  0  0
   -1.5101    0.3821    0.0000 C   0  0  0  0  0  0  0  0  0  0  0  0
   -0.1101   -0.1563    0.0000 C   0  0  0  0  0  0  0  0  0  0  0  0
    1.0562    0.7869    0.0000 O   0  0  0  0  0  0  0  0  0  0  0  0
    2.4563    0.2485    0.0000 C   0  0  0  0  0  0  0  0  0  0  0  0
    2.6900   -1.2332    0.0000 O   0  0  0  0  0  0  0  0  0  0  0  0
    3.6226    1.1918    0.0000 C   0  0  0  0  0  0  0  0  0  0  0  0
    4.7540    0.2070    0.0000 C   0  0  0  0  0  0  0  0  0  0  0  0
    4.4669   -1.2653    0.0000 C   0  0  0  0  0  0  0  0  0  0  0  0
    5.5984   -2.2501    0.0000 C   0  0  0  0  0  0  0  0  0  0  0  0
    7.0169   -1.7626    0.0000 C   0  0  0  0  0  0  0  0  0  0  0  0
    7.3041   -0.2903    0.0000 C   0  0  0  0  0  0  0  0  0  0  0  0
    6.1726    0.6945    0.0000 C   0  0  0  0  0  0  0  0  0  0  0  0
    2.8962    2.5042    0.0000 C   0  0  0  0  0  0  0  0  0  0  0  0
    4.3959    2.4771    0.0000 C   0  0  0  0  0  0  0  0  0  0  0  0
  1  2  1  0
  2  3  1  0
  3  4  1  0
  4  5  1  0
  3  6  1  0
  6  7  1  0
  7  8  1  0
  8  9  1  0
  9 10  1  0
 10 11  1  0
 11 12  1  0
 12 13  2  0
 12 14  1  0
 14 15  1  0
 15 16  2  0
 16 17  1  0
 17 18  2  0
 18 19  1  0
 19 20  2  0
 14 21  1  0
 21 22  1  0
 22 14  1  0
 20 15  1  0
M  END
>  <ChemBL_ID>  (638) 
CHEMBL73762

>  <Compound_Key>  (638) 
34

>  <Ki>  (638) 
2910.0

>  <database>  (638) 
CHEMBL

>  <Assay_ChEMBL_ID>  (638) 
CHEMBL805749

>  <Document_ChEMBL_ID>  (638) 
CHEMBL1127585

$$$$

     RDKit          2D

 23 24  0  0  0  0  0  0  0  0999 V2000
   -9.3054   -0.7892    0.0000 C   0  0  0  0  0  0  0  0  0  0  0  0
   -7.9184   -1.3604    0.0000 C   0  0  0  0  0  0  0  0  0  0  0  0
   -6.7302   -0.4449    0.0000 N   0  0  0  0  0  0  0  0  0  0  0  0
   -6.9290    1.0419    0.0000 C   0  0  0  0  0  0  0  0  0  0  0  0
   -8.3160    1.6131    0.0000 C   0  0  0  0  0  0  0  0  0  0  0  0
   -5.3432   -1.0161    0.0000 C   0  0  0  0  0  0  0  0  0  0  0  0
   -4.1550   -0.1005    0.0000 C   0  0  0  0  0  0  0  0  0  0  0  0
   -2.7681   -0.6717    0.0000 O   0  0  0  0  0  0  0  0  0  0  0  0
   -1.5799    0.2439    0.0000 C   0  0  0  0  0  0  0  0  0  0  0  0
   -0.1929   -0.3273    0.0000 C   0  0  0  0  0  0  0  0  0  0  0  0
    0.9953    0.5882    0.0000 N   0  0  0  0  0  0  0  0  0  0  0  0
    2.3822    0.0170    0.0000 C   0  0  0  0  0  0  0  0  0  0  0  0
    3.5704    0.9326    0.0000 C   0  0  0  0  0  0  0  0  0  0  0  0
    4.3568   -0.3447    0.0000 C   0  0  0  0  0  0  0  0  0  0  0  0
    3.6437   -1.6644    0.0000 C   0  0  0  0  0  0  0  0  0  0  0  0
    4.4301   -2.9418    0.0000 C   0  0  0  0  0  0  0  0  0  0  0  0
    5.9295   -2.8995    0.0000 C   0  0  0  0  0  0  0  0  0  0  0  0
    6.6425   -1.5798    0.0000 C   0  0  0  0  0  0  0  0  0  0  0  0
    5.8562   -0.3024    0.0000 C   0  0  0  0  0  0  0  0  0  0  0  0
    2.5357    2.0186    0.0000 C   0  0  0  0  0  0  0  0  0  0  0  0
    3.2487    3.3382    0.0000 C   0  0  0  0  0  0  0  0  0  0  0  0
    4.7241    3.0679    0.0000 C   0  0  0  0  0  0  0  0  0  0  0  0
    4.9230    1.5811    0.0000 C   0  0  0  0  0  0  0  0  0  0  0  0
  1  2  1  0
  2  3  1  0
  3  4  1  0
  4  5  1  0
  3  6  1  0
  6  7  1  0
  7  8  1  0
  8  9  1  0
  9 10  1  0
 10 11  1  0
 11 12  1  0
 12 13  1  0
 13 14  1  0
 14 15  2  0
 15 16  1  0
 16 17  2  0
 17 18  1  0
 18 19  2  0
 13 20  1  0
 20 21  1  0
 21 22  1  0
 22 23  1  0
 23 13  1  0
 19 14  1  0
M  END
>  <ChemBL_ID>  (639) 
CHEMBL308707

>  <Compound_Key>  (639) 
42

>  <Ki>  (639) 
1100.0

>  <database>  (639) 
CHEMBL

>  <Assay_ChEMBL_ID>  (639) 
CHEMBL805749

>  <Document_ChEMBL_ID>  (639) 
CHEMBL1127585

$$$$

     RDKit          2D

 23 24  0  0  0  0  0  0  0  0999 V2000
   -9.3054   -0.7892    0.0000 C   0  0  0  0  0  0  0  0  0  0  0  0
   -7.9184   -1.3604    0.0000 C   0  0  0  0  0  0  0  0  0  0  0  0
   -6.7302   -0.4449    0.0000 N   0  0  0  0  0  0  0  0  0  0  0  0
   -6.9290    1.0419    0.0000 C   0  0  0  0  0  0  0  0  0  0  0  0
   -8.3160    1.6131    0.0000 C   0  0  0  0  0  0  0  0  0  0  0  0
   -5.3432   -1.0161    0.0000 C   0  0  0  0  0  0  0  0  0  0  0  0
   -4.1550   -0.1005    0.0000 C   0  0  0  0  0  0  0  0  0  0  0  0
   -2.7681   -0.6717    0.0000 O   0  0  0  0  0  0  0  0  0  0  0  0
   -1.5799    0.2439    0.0000 C   0  0  0  0  0  0  0  0  0  0  0  0
   -0.1929   -0.3273    0.0000 C   0  0  0  0  0  0  0  0  0  0  0  0
    0.9953    0.5882    0.0000 O   0  0  0  0  0  0  0  0  0  0  0  0
    2.3822    0.0170    0.0000 C   0  0  0  0  0  0  0  0  0  0  0  0
    3.5704    0.9326    0.0000 C   0  0  0  0  0  0  0  0  0  0  0  0
    4.3568   -0.3447    0.0000 C   0  0  0  0  0  0  0  0  0  0  0  0
    3.6437   -1.6644    0.0000 C   0  0  0  0  0  0  0  0  0  0  0  0
    4.4301   -2.9418    0.0000 C   0  0  0  0  0  0  0  0  0  0  0  0
    5.9295   -2.8995    0.0000 C   0  0  0  0  0  0  0  0  0  0  0  0
    6.6425   -1.5798    0.0000 C   0  0  0  0  0  0  0  0  0  0  0  0
    5.8562   -0.3024    0.0000 C   0  0  0  0  0  0  0  0  0  0  0  0
    2.5357    2.0186    0.0000 C   0  0  0  0  0  0  0  0  0  0  0  0
    3.2487    3.3382    0.0000 C   0  0  0  0  0  0  0  0  0  0  0  0
    4.7241    3.0679    0.0000 C   0  0  0  0  0  0  0  0  0  0  0  0
    4.9230    1.5811    0.0000 C   0  0  0  0  0  0  0  0  0  0  0  0
  1  2  1  0
  2  3  1  0
  3  4  1  0
  4  5  1  0
  3  6  1  0
  6  7  1  0
  7  8  1  0
  8  9  1  0
  9 10  1  0
 10 11  1  0
 11 12  1  0
 12 13  1  0
 13 14  1  0
 14 15  2  0
 15 16  1  0
 16 17  2  0
 17 18  1  0
 18 19  2  0
 13 20  1  0
 20 21  1  0
 21 22  1  0
 22 23  1  0
 23 13  1  0
 19 14  1  0
M  END
>  <ChemBL_ID>  (640) 
CHEMBL72506

>  <Compound_Key>  (640) 
41

>  <Ki>  (640) 
463.0

>  <database>  (640) 
CHEMBL

>  <Assay_ChEMBL_ID>  (640) 
CHEMBL805749

>  <Document_ChEMBL_ID>  (640) 
CHEMBL1127585

$$$$

     RDKit          2D

 26 27  0  0  0  0  0  0  0  0999 V2000
   -9.8119   -1.3207    0.0000 C   0  0  0  0  0  0  0  0  0  0  0  0
   -8.3759   -1.7544    0.0000 C   0  0  0  0  0  0  0  0  0  0  0  0
   -7.2824   -0.7276    0.0000 N   0  0  0  0  0  0  0  0  0  0  0  0
   -7.6248    0.7328    0.0000 C   0  0  0  0  0  0  0  0  0  0  0  0
   -9.0608    1.1664    0.0000 C   0  0  0  0  0  0  0  0  0  0  0  0
   -5.8465   -1.1613    0.0000 C   0  0  0  0  0  0  0  0  0  0  0  0
   -4.7529   -0.1346    0.0000 C   0  0  0  0  0  0  0  0  0  0  0  0
   -3.3170   -0.5682    0.0000 O   0  0  0  0  0  0  0  0  0  0  0  0
   -2.2234    0.4585    0.0000 C   0  0  0  0  0  0  0  0  0  0  0  0
   -0.7875    0.0248    0.0000 C   0  0  0  0  0  0  0  0  0  0  0  0
    0.3060    1.0516    0.0000 O   0  0  0  0  0  0  0  0  0  0  0  0
    1.7420    0.6179    0.0000 C   0  0  0  0  0  0  0  0  0  0  0  0
    2.0844   -0.8425    0.0000 O   0  0  0  0  0  0  0  0  0  0  0  0
    2.8355    1.6446    0.0000 C   0  0  0  0  0  0  0  0  0  0  0  0
    3.7423    0.4497    0.0000 C   0  0  0  0  0  0  0  0  0  0  0  0
    3.1609   -0.9330    0.0000 C   0  0  0  0  0  0  0  0  0  0  0  0
    4.0677   -2.1279    0.0000 C   0  0  0  0  0  0  0  0  0  0  0  0
    5.5559   -1.9400    0.0000 C   0  0  0  0  0  0  0  0  0  0  0  0
    6.4627   -3.1349    0.0000 O   0  0  0  0  0  0  0  0  0  0  0  0
    5.8813   -4.5176    0.0000 C   0  0  0  0  0  0  0  0  0  0  0  0
    6.1373   -0.5573    0.0000 C   0  0  0  0  0  0  0  0  0  0  0  0
    5.2305    0.6376    0.0000 C   0  0  0  0  0  0  0  0  0  0  0  0
    1.7001    2.6248    0.0000 C   0  0  0  0  0  0  0  0  0  0  0  0
    2.2815    4.0076    0.0000 C   0  0  0  0  0  0  0  0  0  0  0  0
    3.7762    3.8819    0.0000 C   0  0  0  0  0  0  0  0  0  0  0  0
    4.1186    2.4215    0.0000 C   0  0  0  0  0  0  0  0  0  0  0  0
  1  2  1  0
  2  3  1  0
  3  4  1  0
  4  5  1  0
  3  6  1  0
  6  7  1  0
  7  8  1  0
  8  9  1  0
  9 10  1  0
 10 11  1  0
 11 12  1  0
 12 13  2  0
 12 14  1  0
 14 15  1  0
 15 16  2  0
 16 17  1  0
 17 18  2  0
 18 19  1  0
 19 20  1  0
 18 21  1  0
 21 22  2  0
 14 23  1  0
 23 24  1  0
 24 25  1  0
 25 26  1  0
 26 14  1  0
 22 15  1  0
M  END
>  <ChemBL_ID>  (641) 
CHEMBL74305

>  <Compound_Key>  (641) 
37

>  <Ki>  (641) 
1500.0

>  <database>  (641) 
CHEMBL

>  <Assay_ChEMBL_ID>  (641) 
CHEMBL805749

>  <Document_ChEMBL_ID>  (641) 
CHEMBL1127585

$$$$

     RDKit          2D

 34 37  0  0  0  0  0  0  0  0999 V2000
    3.4500   -2.9614    0.0000 C   0  0  0  0  0  0  0  0  0  0  0  0
    2.3453   -1.9467    0.0000 C   0  0  0  0  0  0  0  0  0  0  0  0
    0.9142   -2.3960    0.0000 C   0  0  0  0  0  0  0  0  0  0  0  0
   -0.1905   -1.3813    0.0000 N   0  0  0  0  0  0  0  0  0  0  0  0
   -1.6216   -1.8307    0.0000 C   0  0  0  0  0  0  0  0  0  0  0  0
   -2.7263   -0.8160    0.0000 C   0  0  0  0  0  0  0  0  0  0  0  0
   -4.1574   -1.2654    0.0000 C   0  0  0  0  0  0  0  0  0  0  0  0
   -5.2622   -0.2507    0.0000 N   0  0  0  0  0  0  0  0  0  0  0  0
   -6.6933   -0.7001    0.0000 C   0  0  0  0  0  0  0  0  0  0  0  0
   -7.7980    0.3146    0.0000 C   0  0  0  0  0  0  0  0  0  0  0  0
   -9.2291   -0.1348    0.0000 C   0  0  0  0  0  0  0  0  0  0  0  0
   -9.5555   -1.5988    0.0000 C   0  0  0  0  0  0  0  0  0  0  0  0
   -8.4508   -2.6135    0.0000 C   0  0  0  0  0  0  0  0  0  0  0  0
   -7.0197   -2.1641    0.0000 C   0  0  0  0  0  0  0  0  0  0  0  0
   -4.9358    1.2133    0.0000 C   0  0  0  0  0  0  0  0  0  0  0  0
   -3.5047    1.6627    0.0000 C   0  0  0  0  0  0  0  0  0  0  0  0
   -3.1783    3.1268    0.0000 C   0  0  0  0  0  0  0  0  0  0  0  0
   -4.2830    4.1415    0.0000 C   0  0  0  0  0  0  0  0  0  0  0  0
   -5.7141    3.6921    0.0000 C   0  0  0  0  0  0  0  0  0  0  0  0
   -6.0405    2.2280    0.0000 C   0  0  0  0  0  0  0  0  0  0  0  0
    0.1359    0.0827    0.0000 C   0  0  0  0  0  0  0  0  0  0  0  0
    1.5670    0.5321    0.0000 C   0  0  0  0  0  0  0  0  0  0  0  0
    1.8934    1.9961    0.0000 C   0  0  0  0  0  0  0  0  0  0  0  0
    2.6717   -0.4826    0.0000 N   0  0  0  0  0  0  0  0  0  0  0  0
    4.1028   -0.0332    0.0000 C   0  0  0  0  0  0  0  0  0  0  0  0
    5.2075   -1.0479    0.0000 C   0  0  0  0  0  0  0  0  0  0  0  0
    6.6386   -0.5986    0.0000 C   0  0  0  0  0  0  0  0  0  0  0  0
    7.7434   -1.6132    0.0000 C   0  0  0  0  0  0  0  0  0  0  0  0
    9.1745   -1.1639    0.0000 C   0  0  0  0  0  0  0  0  0  0  0  0
    9.5008    0.3002    0.0000 C   0  0  0  0  0  0  0  0  0  0  0  0
   10.9320    0.7496    0.0000 Cl  0  0  0  0  0  0  0  0  0  0  0  0
    8.3961    1.3149    0.0000 C   0  0  0  0  0  0  0  0  0  0  0  0
    8.7225    2.7789    0.0000 Cl  0  0  0  0  0  0  0  0  0  0  0  0
    6.9650    0.8655    0.0000 C   0  0  0  0  0  0  0  0  0  0  0  0
  2  1  1  6
  2  3  1  0
  3  4  1  0
  4  5  1  0
  5  6  1  0
  6  7  1  0
  7  8  1  0
  8  9  1  0
  9 10  2  0
 10 11  1  0
 11 12  2  0
 12 13  1  0
 13 14  2  0
  8 15  1  0
 15 16  2  0
 16 17  1  0
 17 18  2  0
 18 19  1  0
 19 20  2  0
  4 21  1  0
 21 22  1  0
 22 23  1  1
 22 24  1  0
 24 25  1  0
 25 26  1  0
 26 27  1  0
 27 28  2  0
 28 29  1  0
 29 30  2  0
 30 31  1  0
 30 32  1  0
 32 33  1  0
 32 34  2  0
 24  2  1  0
 34 27  1  0
 14  9  1  0
 20 15  1  0
M  END
>  <ChemBL_ID>  (642) 
CHEMBL84971

>  <Compound_Key>  (642) 
13

>  <Ki>  (642) 
216.0

>  <database>  (642) 
CHEMBL

>  <Assay_ChEMBL_ID>  (642) 
CHEMBL809527

>  <Document_ChEMBL_ID>  (642) 
CHEMBL1145802

$$$$

     RDKit          2D

 21 21  0  0  0  0  0  0  0  0999 V2000
    9.2063    0.6426    0.0000 C   0  0  0  0  0  0  0  0  0  0  0  0
    7.8268    1.2316    0.0000 C   0  0  0  0  0  0  0  0  0  0  0  0
    6.6269    0.3315    0.0000 N   0  0  0  0  0  0  0  0  0  0  0  0
    6.8065   -1.1577    0.0000 C   0  0  0  0  0  0  0  0  0  0  0  0
    8.1860   -1.7468    0.0000 C   0  0  0  0  0  0  0  0  0  0  0  0
    5.2474    0.9206    0.0000 C   0  0  0  0  0  0  0  0  0  0  0  0
    4.0475    0.0205    0.0000 C   0  0  0  0  0  0  0  0  0  0  0  0
    2.6680    0.6095    0.0000 O   0  0  0  0  0  0  0  0  0  0  0  0
    1.4681   -0.2906    0.0000 C   0  0  0  0  0  0  0  0  0  0  0  0
    0.0886    0.2985    0.0000 C   0  0  0  0  0  0  0  0  0  0  0  0
   -1.1113   -0.6017    0.0000 O   0  0  0  0  0  0  0  0  0  0  0  0
   -2.4908   -0.0126    0.0000 C   0  0  0  0  0  0  0  0  0  0  0  0
   -2.6704    1.4766    0.0000 O   0  0  0  0  0  0  0  0  0  0  0  0
   -3.6907   -0.9127    0.0000 C   0  0  0  0  0  0  0  0  0  0  0  0
   -3.5111   -2.4019    0.0000 C   0  0  0  0  0  0  0  0  0  0  0  0
   -5.0702   -0.3236    0.0000 C   0  0  0  0  0  0  0  0  0  0  0  0
   -6.2701   -1.2238    0.0000 C   0  0  0  0  0  0  0  0  0  0  0  0
   -7.6495   -0.6347    0.0000 C   0  0  0  0  0  0  0  0  0  0  0  0
   -7.8291    0.8545    0.0000 C   0  0  0  0  0  0  0  0  0  0  0  0
   -6.6292    1.7546    0.0000 C   0  0  0  0  0  0  0  0  0  0  0  0
   -5.2497    1.1656    0.0000 C   0  0  0  0  0  0  0  0  0  0  0  0
  1  2  1  0
  2  3  1  0
  3  4  1  0
  4  5  1  0
  3  6  1  0
  6  7  1  0
  7  8  1  0
  8  9  1  0
  9 10  1  0
 10 11  1  0
 11 12  1  0
 12 13  2  0
 12 14  1  0
 14 15  1  0
 14 16  1  0
 16 17  2  0
 17 18  1  0
 18 19  2  0
 19 20  1  0
 20 21  2  0
 21 16  1  0
M  END
>  <ChemBL_ID>  (643) 
CHEMBL309172

>  <Compound_Key>  (643) 
35

>  <Ki>  (643) 
3110.0

>  <database>  (643) 
CHEMBL

>  <Assay_ChEMBL_ID>  (643) 
CHEMBL805749

>  <Document_ChEMBL_ID>  (643) 
CHEMBL1127585

$$$$

     RDKit          2D

 27 30  0  0  0  0  0  0  0  0999 V2000
   -9.4439   -0.8282    0.0000 C   0  0  0  0  0  0  0  0  0  0  0  0
   -8.0074   -1.2600    0.0000 O   0  0  0  0  0  0  0  0  0  0  0  0
   -6.9152   -0.2320    0.0000 C   0  0  0  0  0  0  0  0  0  0  0  0
   -7.2594    1.2280    0.0000 C   0  0  0  0  0  0  0  0  0  0  0  0
   -6.1671    2.2561    0.0000 C   0  0  0  0  0  0  0  0  0  0  0  0
   -4.7306    1.8242    0.0000 C   0  0  0  0  0  0  0  0  0  0  0  0
   -4.3864    0.3642    0.0000 C   0  0  0  0  0  0  0  0  0  0  0  0
   -5.4787   -0.6638    0.0000 C   0  0  0  0  0  0  0  0  0  0  0  0
   -5.1345   -2.1238    0.0000 C   0  0  0  0  0  0  0  0  0  0  0  0
   -3.6980   -2.5557    0.0000 C   0  0  0  0  0  0  0  0  0  0  0  0
   -2.6057   -1.5276    0.0000 C   0  0  0  0  0  0  0  0  0  0  0  0
   -2.9500   -0.0676    0.0000 C   0  0  0  0  0  0  0  0  0  0  0  0
   -1.8577    0.9604    0.0000 N   0  0  0  0  0  0  0  0  0  0  0  0
   -0.4212    0.5286    0.0000 C   0  0  0  0  0  0  0  0  0  0  0  0
    0.6711    1.5566    0.0000 C   0  0  0  0  0  0  0  0  0  0  0  0
    2.1075    1.1248    0.0000 N   0  0  0  0  0  0  0  0  0  0  0  0
    2.4518   -0.3352    0.0000 C   0  0  0  0  0  0  0  0  0  0  0  0
    3.8882   -0.7671    0.0000 C   0  0  0  0  0  0  0  0  0  0  0  0
    4.9805    0.2610    0.0000 N   0  0  0  0  0  0  0  0  0  0  0  0
    6.4170   -0.1709    0.0000 C   0  0  0  0  0  0  0  0  0  0  0  0
    6.7612   -1.6309    0.0000 C   0  0  0  0  0  0  0  0  0  0  0  0
    8.1977   -2.0627    0.0000 C   0  0  0  0  0  0  0  0  0  0  0  0
    9.2899   -1.0347    0.0000 C   0  0  0  0  0  0  0  0  0  0  0  0
    8.9457    0.4253    0.0000 C   0  0  0  0  0  0  0  0  0  0  0  0
    7.5092    0.8572    0.0000 C   0  0  0  0  0  0  0  0  0  0  0  0
    4.6363    1.7210    0.0000 C   0  0  0  0  0  0  0  0  0  0  0  0
    3.1998    2.1528    0.0000 C   0  0  0  0  0  0  0  0  0  0  0  0
  1  2  1  0
  2  3  1  0
  3  4  2  0
  4  5  1  0
  5  6  2  0
  6  7  1  0
  7  8  2  0
  8  9  1  0
  9 10  1  0
 10 11  1  0
 11 12  1  0
 12 13  1  0
 13 14  1  0
 14 15  1  0
 15 16  1  0
 16 17  1  0
 17 18  1  0
 18 19  1  0
 19 20  1  0
 20 21  1  0
 21 22  1  0
 22 23  1  0
 23 24  1  0
 24 25  1  0
 19 26  1  0
 26 27  1  0
  8  3  1  0
 27 16  1  0
 12  7  1  0
 25 20  1  0
M  END
>  <ChemBL_ID>  (644) 
CHEMBL1672033

>  <Ki>  (644) 
8.49

>  <database>  (644) 
SRSLDB

$$$$

     RDKit          2D

 33 36  0  0  0  0  0  0  0  0999 V2000
    5.6117    2.6650    0.0000 C   0  0  0  0  0  0  0  0  0  0  0  0
    5.0886    1.2591    0.0000 O   0  0  0  0  0  0  0  0  0  0  0  0
    6.0446    0.1032    0.0000 C   0  0  0  0  0  0  0  0  0  0  0  0
    5.5215   -1.3026    0.0000 C   0  0  0  0  0  0  0  0  0  0  0  0
    4.0425   -1.5526    0.0000 C   0  0  0  0  0  0  0  0  0  0  0  0
    3.5194   -2.9584    0.0000 O   0  0  0  0  0  0  0  0  0  0  0  0
    3.0865   -0.3967    0.0000 N   0  0  0  0  0  0  0  0  0  0  0  0
    1.6075   -0.6466    0.0000 C   0  0  0  0  0  0  0  0  0  0  0  0
    0.6515    0.5093    0.0000 C   0  0  0  0  0  0  0  0  0  0  0  0
   -0.8275    0.2594    0.0000 C   0  0  0  0  0  0  0  0  0  0  0  0
   -1.7835    1.4153    0.0000 C   0  0  0  0  0  0  0  0  0  0  0  0
   -3.2625    1.1654    0.0000 N   0  0  0  0  0  0  0  0  0  0  0  0
   -4.2185    2.3213    0.0000 C   0  0  0  0  0  0  0  0  0  0  0  0
   -5.6975    2.0713    0.0000 C   0  0  0  0  0  0  0  0  0  0  0  0
   -6.2206    0.6655    0.0000 N   0  0  0  0  0  0  0  0  0  0  0  0
   -7.6996    0.4156    0.0000 C   0  0  0  0  0  0  0  0  0  0  0  0
   -8.6556    1.5715    0.0000 C   0  0  0  0  0  0  0  0  0  0  0  0
  -10.1346    1.3215    0.0000 C   0  0  0  0  0  0  0  0  0  0  0  0
  -10.6577   -0.0843    0.0000 C   0  0  0  0  0  0  0  0  0  0  0  0
   -9.7017   -1.2402    0.0000 C   0  0  0  0  0  0  0  0  0  0  0  0
  -10.2248   -2.6461    0.0000 Cl  0  0  0  0  0  0  0  0  0  0  0  0
   -8.2227   -0.9903    0.0000 C   0  0  0  0  0  0  0  0  0  0  0  0
   -7.2667   -2.1462    0.0000 Cl  0  0  0  0  0  0  0  0  0  0  0  0
   -5.2646   -0.4904    0.0000 C   0  0  0  0  0  0  0  0  0  0  0  0
   -3.7856   -0.2405    0.0000 C   0  0  0  0  0  0  0  0  0  0  0  0
    6.4775   -2.4585    0.0000 C   0  0  0  0  0  0  0  0  0  0  0  0
    7.9565   -2.2086    0.0000 C   0  0  0  0  0  0  0  0  0  0  0  0
    8.4796   -0.8028    0.0000 C   0  0  0  0  0  0  0  0  0  0  0  0
    9.9586   -0.5528    0.0000 C   0  0  0  0  0  0  0  0  0  0  0  0
   10.4817    0.8530    0.0000 C   0  0  0  0  0  0  0  0  0  0  0  0
    9.5257    2.0089    0.0000 C   0  0  0  0  0  0  0  0  0  0  0  0
    8.0467    1.7590    0.0000 C   0  0  0  0  0  0  0  0  0  0  0  0
    7.5236    0.3532    0.0000 C   0  0  0  0  0  0  0  0  0  0  0  0
  1  2  1  0
  2  3  1  0
  3  4  2  0
  4  5  1  0
  5  6  2  0
  5  7  1  0
  7  8  1  0
  8  9  1  0
  9 10  1  0
 10 11  1  0
 11 12  1  0
 12 13  1  0
 13 14  1  0
 14 15  1  0
 15 16  1  0
 16 17  2  0
 17 18  1  0
 18 19  2  0
 19 20  1  0
 20 21  1  0
 20 22  2  0
 22 23  1  0
 15 24  1  0
 24 25  1  0
  4 26  1  0
 26 27  2  0
 27 28  1  0
 28 29  2  0
 29 30  1  0
 30 31  2  0
 31 32  1  0
 32 33  2  0
 33  3  1  0
 25 12  1  0
 33 28  1  0
 22 16  1  0
M  END
>  <ChemBL_ID>  (645) 
CHEMBL345820

>  <Compound_Key>  (645) 
1 (table 1 Page 7019)

>  <Ki>  (645) 
164.0

>  <database>  (645) 
CHEMBL

>  <Assay_ChEMBL_ID>  (645) 
CHEMBL884776

>  <Document_ChEMBL_ID>  (645) 
CHEMBL1140382

$$$$

     RDKit          2D

 24 27  0  0  0  0  0  0  0  0999 V2000
   -7.3478    1.5380    0.0000 C   0  0  0  0  0  0  0  0  0  0  0  0
   -6.3355    0.4311    0.0000 O   0  0  0  0  0  0  0  0  0  0  0  0
   -4.8707    0.7543    0.0000 C   0  0  0  0  0  0  0  0  0  0  0  0
   -4.4183    2.1845    0.0000 C   0  0  0  0  0  0  0  0  0  0  0  0
   -2.9535    2.5077    0.0000 C   0  0  0  0  0  0  0  0  0  0  0  0
   -1.9412    1.4008    0.0000 C   0  0  0  0  0  0  0  0  0  0  0  0
   -2.3937   -0.0293    0.0000 C   0  0  0  0  0  0  0  0  0  0  0  0
   -3.8584   -0.3526    0.0000 C   0  0  0  0  0  0  0  0  0  0  0  0
   -4.3109   -1.7827    0.0000 C   0  0  0  0  0  0  0  0  0  0  0  0
   -3.2986   -2.8896    0.0000 C   0  0  0  0  0  0  0  0  0  0  0  0
   -1.8338   -2.5664    0.0000 C   0  0  0  0  0  0  0  0  0  0  0  0
   -1.3814   -1.1363    0.0000 C   0  0  0  0  0  0  0  0  0  0  0  0
    0.0834   -0.8130    0.0000 N   0  0  0  0  0  0  0  0  0  0  0  0
    1.0957   -1.9199    0.0000 C   0  0  0  0  0  0  0  0  0  0  0  0
    2.5605   -1.5967    0.0000 C   0  0  0  0  0  0  0  0  0  0  0  0
    3.0129   -0.1666    0.0000 N   0  0  0  0  0  0  0  0  0  0  0  0
    4.4777    0.1567    0.0000 C   0  0  0  0  0  0  0  0  0  0  0  0
    5.4900   -0.9502    0.0000 C   0  0  0  0  0  0  0  0  0  0  0  0
    6.9548   -0.6270    0.0000 C   0  0  0  0  0  0  0  0  0  0  0  0
    7.4072    0.8031    0.0000 C   0  0  0  0  0  0  0  0  0  0  0  0
    6.3949    1.9100    0.0000 C   0  0  0  0  0  0  0  0  0  0  0  0
    4.9301    1.5868    0.0000 C   0  0  0  0  0  0  0  0  0  0  0  0
    2.0006    0.9403    0.0000 C   0  0  0  0  0  0  0  0  0  0  0  0
    0.5359    0.6171    0.0000 C   0  0  0  0  0  0  0  0  0  0  0  0
  1  2  1  0
  2  3  1  0
  3  4  2  0
  4  5  1  0
  5  6  2  0
  6  7  1  0
  7  8  2  0
  8  9  1  0
  9 10  1  0
 10 11  1  0
 11 12  1  0
 12 13  1  0
 13 14  1  0
 14 15  1  0
 15 16  1  0
 16 17  1  0
 17 18  1  0
 18 19  1  0
 19 20  1  0
 20 21  1  0
 21 22  1  0
 16 23  1  0
 23 24  1  0
  8  3  1  0
 24 13  1  0
 12  7  1  0
 22 17  1  0
M  END
>  <ChemBL_ID>  (646) 
CHEMBL309064

>  <Compound_Key>  (646) 
29

>  <Ki>  (646) 
7.9

>  <database>  (646) 
CHEMBL

>  <Assay_ChEMBL_ID>  (646) 
CHEMBL807587

>  <Document_ChEMBL_ID>  (646) 
CHEMBL1148440

$$$$

     RDKit          2D

 24 26  0  0  0  0  0  0  0  0999 V2000
   -6.9097   -2.1951    0.0000 F   0  0  0  0  0  0  0  0  0  0  0  0
   -5.4801   -1.7409    0.0000 C   0  0  0  0  0  0  0  0  0  0  0  0
   -5.1586   -0.2758    0.0000 C   0  0  0  0  0  0  0  0  0  0  0  0
   -3.7290    0.1784    0.0000 C   0  0  0  0  0  0  0  0  0  0  0  0
   -2.6209   -0.8326    0.0000 C   0  0  0  0  0  0  0  0  0  0  0  0
   -1.1913   -0.3785    0.0000 N   0  0  0  0  0  0  0  0  0  0  0  0
   -0.0832   -1.3895    0.0000 C   0  0  0  0  0  0  0  0  0  0  0  0
    1.3464   -0.9353    0.0000 C   0  0  0  0  0  0  0  0  0  0  0  0
    2.4545   -1.9463    0.0000 C   0  0  0  0  0  0  0  0  0  0  0  0
    3.8841   -1.4921    0.0000 N   0  0  0  0  0  0  0  0  0  0  0  0
    4.9922   -2.5031    0.0000 C   0  0  0  0  0  0  0  0  0  0  0  0
    6.4218   -2.0490    0.0000 C   0  0  0  0  0  0  0  0  0  0  0  0
    6.7433   -0.5838    0.0000 N   0  0  0  0  0  0  0  0  0  0  0  0
    5.6352    0.4272    0.0000 C   0  0  0  0  0  0  0  0  0  0  0  0
    4.2056   -0.0270    0.0000 C   0  0  0  0  0  0  0  0  0  0  0  0
   -0.8698    1.0867    0.0000 C   0  0  0  0  0  0  0  0  0  0  0  0
    0.5598    1.5408    0.0000 C   0  0  0  0  0  0  0  0  0  0  0  0
    0.8812    3.0060    0.0000 C   0  0  0  0  0  0  0  0  0  0  0  0
   -0.2269    4.0170    0.0000 C   0  0  0  0  0  0  0  0  0  0  0  0
    0.0946    5.4821    0.0000 F   0  0  0  0  0  0  0  0  0  0  0  0
   -1.6565    3.5628    0.0000 C   0  0  0  0  0  0  0  0  0  0  0  0
   -1.9779    2.0977    0.0000 C   0  0  0  0  0  0  0  0  0  0  0  0
   -2.9424   -2.2978    0.0000 C   0  0  0  0  0  0  0  0  0  0  0  0
   -4.3720   -2.7519    0.0000 C   0  0  0  0  0  0  0  0  0  0  0  0
  1  2  1  0
  2  3  2  0
  3  4  1  0
  4  5  2  0
  5  6  1  0
  6  7  1  0
  7  8  1  0
  8  9  1  0
  9 10  1  0
 10 11  1  0
 11 12  1  0
 12 13  1  0
 13 14  1  0
 14 15  1  0
  6 16  1  0
 16 17  2  0
 17 18  1  0
 18 19  2  0
 19 20  1  0
 19 21  1  0
 21 22  2  0
  5 23  1  0
 23 24  2  0
 24  2  1  0
 15 10  1  0
 22 16  1  0
M  END
>  <ChemBL_ID>  (647) 
CHEMBL315166

>  <Compound_Key>  (647) 
15

>  <Ki>  (647) 
385.0

>  <database>  (647) 
CHEMBL

>  <Assay_ChEMBL_ID>  (647) 
CHEMBL809527

>  <Document_ChEMBL_ID>  (647) 
CHEMBL1145802

$$$$

     RDKit          2D

 26 29  0  0  0  0  0  0  0  0999 V2000
    7.7960   -2.4991    0.0000 C   0  0  0  0  0  0  0  0  0  0  0  0
    6.3702   -2.9649    0.0000 C   0  0  0  0  0  0  0  0  0  0  0  0
    5.2539   -1.9630    0.0000 C   0  0  0  0  0  0  0  0  0  0  0  0
    5.5634   -0.4953    0.0000 C   0  0  0  0  0  0  0  0  0  0  0  0
    4.4471    0.5067    0.0000 C   0  0  0  0  0  0  0  0  0  0  0  0
    3.0213    0.0409    0.0000 C   0  0  0  0  0  0  0  0  0  0  0  0
    1.9050    1.0428    0.0000 C   0  0  0  0  0  0  0  0  0  0  0  0
    0.4791    0.5770    0.0000 C   0  0  0  0  0  0  0  0  0  0  0  0
   -0.6372    1.5789    0.0000 C   0  0  0  0  0  0  0  0  0  0  0  0
   -2.0630    1.1132    0.0000 N   0  0  0  0  0  0  0  0  0  0  0  0
   -3.1793    2.1151    0.0000 C   0  0  0  0  0  0  0  0  0  0  0  0
   -4.6052    1.6493    0.0000 C   0  0  0  0  0  0  0  0  0  0  0  0
   -4.9147    0.1816    0.0000 N   0  0  0  0  0  0  0  0  0  0  0  0
   -6.3406   -0.2842    0.0000 C   0  0  0  0  0  0  0  0  0  0  0  0
   -7.4569    0.7177    0.0000 C   0  0  0  0  0  0  0  0  0  0  0  0
   -8.8827    0.2519    0.0000 C   0  0  0  0  0  0  0  0  0  0  0  0
   -9.1923   -1.2158    0.0000 C   0  0  0  0  0  0  0  0  0  0  0  0
   -8.0760   -2.2177    0.0000 C   0  0  0  0  0  0  0  0  0  0  0  0
   -6.6501   -1.7519    0.0000 C   0  0  0  0  0  0  0  0  0  0  0  0
   -3.7984   -0.8203    0.0000 C   0  0  0  0  0  0  0  0  0  0  0  0
   -2.3726   -0.3546    0.0000 C   0  0  0  0  0  0  0  0  0  0  0  0
    4.7567    1.9744    0.0000 C   0  0  0  0  0  0  0  0  0  0  0  0
    6.1825    2.4402    0.0000 C   0  0  0  0  0  0  0  0  0  0  0  0
    7.2988    1.4382    0.0000 C   0  0  0  0  0  0  0  0  0  0  0  0
    6.9893   -0.0295    0.0000 C   0  0  0  0  0  0  0  0  0  0  0  0
    8.1056   -1.0314    0.0000 C   0  0  0  0  0  0  0  0  0  0  0  0
  1  2  2  0
  2  3  1  0
  3  4  2  0
  4  5  1  0
  5  6  1  0
  6  7  1  0
  7  8  1  0
  8  9  1  0
  9 10  1  0
 10 11  1  0
 11 12  1  0
 12 13  1  0
 13 14  1  0
 14 15  1  0
 15 16  1  0
 16 17  1  0
 17 18  1  0
 18 19  1  0
 13 20  1  0
 20 21  1  0
  5 22  2  0
 22 23  1  0
 23 24  2  0
 24 25  1  0
 25 26  2  0
 26  1  1  0
 25  4  1  0
 21 10  1  0
 19 14  1  0
M  END
>  <ChemBL_ID>  (648) 
CHEMBL306133

>  <Compound_Key>  (648) 
45

>  <Ki>  (648) 
30.5

>  <database>  (648) 
CHEMBL

>  <Assay_ChEMBL_ID>  (648) 
CHEMBL807586

>  <Document_ChEMBL_ID>  (648) 
CHEMBL1148440

$$$$

     RDKit          2D

 25 28  0  0  0  0  0  0  0  0999 V2000
   -8.1700   -1.0158    0.0000 C   0  0  0  0  0  0  0  0  0  0  0  0
   -6.7075   -1.3491    0.0000 O   0  0  0  0  0  0  0  0  0  0  0  0
   -5.6876   -0.2492    0.0000 C   0  0  0  0  0  0  0  0  0  0  0  0
   -6.1302    1.1840    0.0000 C   0  0  0  0  0  0  0  0  0  0  0  0
   -5.1103    2.2839    0.0000 C   0  0  0  0  0  0  0  0  0  0  0  0
   -3.6478    1.9505    0.0000 C   0  0  0  0  0  0  0  0  0  0  0  0
   -3.2052    0.5173    0.0000 C   0  0  0  0  0  0  0  0  0  0  0  0
   -4.2251   -0.5826    0.0000 C   0  0  0  0  0  0  0  0  0  0  0  0
   -3.7825   -2.0158    0.0000 C   0  0  0  0  0  0  0  0  0  0  0  0
   -2.3200   -2.3491    0.0000 C   0  0  0  0  0  0  0  0  0  0  0  0
   -1.3001   -1.2492    0.0000 C   0  0  0  0  0  0  0  0  0  0  0  0
   -1.7427    0.1840    0.0000 C   0  0  0  0  0  0  0  0  0  0  0  0
   -0.7228    1.2839    0.0000 C   0  0  0  0  0  0  0  0  0  0  0  0
    0.7397    0.9506    0.0000 N   0  0  0  0  0  0  0  0  0  0  0  0
    1.1823   -0.4826    0.0000 C   0  0  0  0  0  0  0  0  0  0  0  0
    2.6448   -0.8160    0.0000 C   0  0  0  0  0  0  0  0  0  0  0  0
    3.6647    0.2839    0.0000 N   0  0  0  0  0  0  0  0  0  0  0  0
    5.1272   -0.0494    0.0000 C   0  0  0  0  0  0  0  0  0  0  0  0
    5.5698   -1.4826    0.0000 C   0  0  0  0  0  0  0  0  0  0  0  0
    7.0323   -1.8159    0.0000 C   0  0  0  0  0  0  0  0  0  0  0  0
    8.0522   -0.7160    0.0000 C   0  0  0  0  0  0  0  0  0  0  0  0
    7.6096    0.7172    0.0000 C   0  0  0  0  0  0  0  0  0  0  0  0
    6.1471    1.0505    0.0000 C   0  0  0  0  0  0  0  0  0  0  0  0
    3.2221    1.7172    0.0000 C   0  0  0  0  0  0  0  0  0  0  0  0
    1.7596    2.0505    0.0000 C   0  0  0  0  0  0  0  0  0  0  0  0
  1  2  1  0
  2  3  1  0
  3  4  2  0
  4  5  1  0
  5  6  2  0
  6  7  1  0
  7  8  2  0
  8  9  1  0
  9 10  1  0
 10 11  1  0
 11 12  1  0
 12 13  1  0
 13 14  1  0
 14 15  1  0
 15 16  1  0
 16 17  1  0
 17 18  1  0
 18 19  1  0
 19 20  1  0
 20 21  1  0
 21 22  1  0
 22 23  1  0
 17 24  1  0
 24 25  1  0
  8  3  1  0
 25 14  1  0
 12  7  1  0
 23 18  1  0
M  END
>  <ChemBL_ID>  (649) 
CHEMBL75878

>  <Compound_Key>  (649) 
30

>  <Ki>  (649) 
16.4

>  <database>  (649) 
CHEMBL

>  <Assay_ChEMBL_ID>  (649) 
CHEMBL807586

>  <Document_ChEMBL_ID>  (649) 
CHEMBL1148440

$$$$

     RDKit          2D

 27 30  0  0  0  0  0  0  0  0999 V2000
   -8.3923   -2.9655    0.0000 C   0  0  0  0  0  0  0  0  0  0  0  0
   -6.9202   -2.6775    0.0000 O   0  0  0  0  0  0  0  0  0  0  0  0
   -6.4336   -1.2586    0.0000 C   0  0  0  0  0  0  0  0  0  0  0  0
   -7.4191   -0.1278    0.0000 C   0  0  0  0  0  0  0  0  0  0  0  0
   -6.9324    1.2911    0.0000 C   0  0  0  0  0  0  0  0  0  0  0  0
   -5.4603    1.5791    0.0000 C   0  0  0  0  0  0  0  0  0  0  0  0
   -4.4749    0.4482    0.0000 C   0  0  0  0  0  0  0  0  0  0  0  0
   -4.9615   -0.9706    0.0000 C   0  0  0  0  0  0  0  0  0  0  0  0
   -3.0028    0.7362    0.0000 C   0  0  0  0  0  0  0  0  0  0  0  0
   -2.0173   -0.3947    0.0000 C   0  0  0  0  0  0  0  0  0  0  0  0
   -0.5452   -0.1067    0.0000 C   0  0  0  0  0  0  0  0  0  0  0  0
    0.4402   -1.2375    0.0000 C   0  0  0  0  0  0  0  0  0  0  0  0
    1.9123   -0.9495    0.0000 N   0  0  0  0  0  0  0  0  0  0  0  0
    2.8978   -2.0804    0.0000 C   0  0  0  0  0  0  0  0  0  0  0  0
    4.3699   -1.7924    0.0000 C   0  0  0  0  0  0  0  0  0  0  0  0
    4.8565   -0.3736    0.0000 N   0  0  0  0  0  0  0  0  0  0  0  0
    6.3286   -0.0856    0.0000 C   0  0  0  0  0  0  0  0  0  0  0  0
    7.3141   -1.2164    0.0000 C   0  0  0  0  0  0  0  0  0  0  0  0
    8.7862   -0.9284    0.0000 C   0  0  0  0  0  0  0  0  0  0  0  0
    9.2728    0.4904    0.0000 C   0  0  0  0  0  0  0  0  0  0  0  0
    8.2873    1.6213    0.0000 C   0  0  0  0  0  0  0  0  0  0  0  0
    6.8152    1.3333    0.0000 C   0  0  0  0  0  0  0  0  0  0  0  0
    3.8711    0.7573    0.0000 C   0  0  0  0  0  0  0  0  0  0  0  0
    2.3990    0.4693    0.0000 C   0  0  0  0  0  0  0  0  0  0  0  0
   -2.5161    2.1551    0.0000 C   0  0  0  0  0  0  0  0  0  0  0  0
   -3.5016    3.2860    0.0000 C   0  0  0  0  0  0  0  0  0  0  0  0
   -4.9737    2.9980    0.0000 C   0  0  0  0  0  0  0  0  0  0  0  0
  1  2  1  0
  2  3  1  0
  3  4  2  0
  4  5  1  0
  5  6  2  0
  6  7  1  0
  7  8  2  0
  7  9  1  0
  9 10  1  0
 10 11  1  0
 11 12  1  0
 12 13  1  0
 13 14  1  0
 14 15  1  0
 15 16  1  0
 16 17  1  0
 17 18  1  0
 18 19  1  0
 19 20  1  0
 20 21  1  0
 21 22  1  0
 16 23  1  0
 23 24  1  0
  9 25  1  0
 25 26  1  0
 26 27  1  0
  8  3  1  0
 24 13  1  0
 27  6  1  0
 22 17  1  0
M  END
>  <ChemBL_ID>  (650) 
CHEMBL75444

>  <Compound_Key>  (650) 
35

>  <Ki>  (650) 
1.22

>  <database>  (650) 
CHEMBL

>  <Assay_ChEMBL_ID>  (650) 
CHEMBL807586

>  <Document_ChEMBL_ID>  (650) 
CHEMBL1148440

$$$$

     RDKit          2D

 26 29  0  0  0  0  0  0  0  0999 V2000
   -8.6574    1.3927    0.0000 C   0  0  0  0  0  0  0  0  0  0  0  0
   -7.5689    0.3605    0.0000 O   0  0  0  0  0  0  0  0  0  0  0  0
   -6.1308    0.7871    0.0000 C   0  0  0  0  0  0  0  0  0  0  0  0
   -5.7812    2.2458    0.0000 C   0  0  0  0  0  0  0  0  0  0  0  0
   -4.3432    2.6724    0.0000 C   0  0  0  0  0  0  0  0  0  0  0  0
   -3.2547    1.6403    0.0000 C   0  0  0  0  0  0  0  0  0  0  0  0
   -3.6043    0.1816    0.0000 C   0  0  0  0  0  0  0  0  0  0  0  0
   -5.0424   -0.2450    0.0000 C   0  0  0  0  0  0  0  0  0  0  0  0
   -5.3920   -1.7037    0.0000 C   0  0  0  0  0  0  0  0  0  0  0  0
   -4.3035   -2.7358    0.0000 C   0  0  0  0  0  0  0  0  0  0  0  0
   -2.8655   -2.3092    0.0000 C   0  0  0  0  0  0  0  0  0  0  0  0
   -2.5159   -0.8505    0.0000 C   0  0  0  0  0  0  0  0  0  0  0  0
   -1.0778   -0.4239    0.0000 C   0  0  0  0  0  0  0  0  0  0  0  0
    0.0107   -1.4560    0.0000 C   0  0  0  0  0  0  0  0  0  0  0  0
    1.4487   -1.0295    0.0000 N   0  0  0  0  0  0  0  0  0  0  0  0
    2.5372   -2.0616    0.0000 C   0  0  0  0  0  0  0  0  0  0  0  0
    3.9753   -1.6350    0.0000 C   0  0  0  0  0  0  0  0  0  0  0  0
    4.3249   -0.1763    0.0000 N   0  0  0  0  0  0  0  0  0  0  0  0
    5.7629    0.2503    0.0000 C   0  0  0  0  0  0  0  0  0  0  0  0
    6.8514   -0.7818    0.0000 C   0  0  0  0  0  0  0  0  0  0  0  0
    8.2895   -0.3553    0.0000 C   0  0  0  0  0  0  0  0  0  0  0  0
    8.6391    1.1034    0.0000 C   0  0  0  0  0  0  0  0  0  0  0  0
    7.5506    2.1355    0.0000 C   0  0  0  0  0  0  0  0  0  0  0  0
    6.1125    1.7090    0.0000 C   0  0  0  0  0  0  0  0  0  0  0  0
    3.2364    0.8558    0.0000 C   0  0  0  0  0  0  0  0  0  0  0  0
    1.7983    0.4292    0.0000 C   0  0  0  0  0  0  0  0  0  0  0  0
  1  2  1  0
  2  3  1  0
  3  4  2  0
  4  5  1  0
  5  6  2  0
  6  7  1  0
  7  8  2  0
  8  9  1  0
  9 10  1  0
 10 11  1  0
 11 12  1  0
 12 13  1  0
 13 14  1  0
 14 15  1  0
 15 16  1  0
 16 17  1  0
 17 18  1  0
 18 19  1  0
 19 20  1  0
 20 21  1  0
 21 22  1  0
 22 23  1  0
 23 24  1  0
 18 25  1  0
 25 26  1  0
  8  3  1  0
 26 15  1  0
 12  7  1  0
 24 19  1  0
M  END
>  <ChemBL_ID>  (651) 
CHEMBL74858

>  <Compound_Key>  (651) 
31

>  <Ki>  (651) 
21.1

>  <database>  (651) 
CHEMBL

>  <Assay_ChEMBL_ID>  (651) 
CHEMBL807586

>  <Document_ChEMBL_ID>  (651) 
CHEMBL1148440

$$$$

     RDKit          2D

 27 30  0  0  0  0  0  0  0  0999 V2000
   -9.4439   -0.8282    0.0000 C   0  0  0  0  0  0  0  0  0  0  0  0
   -8.0074   -1.2600    0.0000 O   0  0  0  0  0  0  0  0  0  0  0  0
   -6.9152   -0.2320    0.0000 C   0  0  0  0  0  0  0  0  0  0  0  0
   -7.2594    1.2280    0.0000 C   0  0  0  0  0  0  0  0  0  0  0  0
   -6.1671    2.2561    0.0000 C   0  0  0  0  0  0  0  0  0  0  0  0
   -4.7306    1.8242    0.0000 C   0  0  0  0  0  0  0  0  0  0  0  0
   -4.3864    0.3642    0.0000 C   0  0  0  0  0  0  0  0  0  0  0  0
   -5.4787   -0.6638    0.0000 C   0  0  0  0  0  0  0  0  0  0  0  0
   -5.1345   -2.1238    0.0000 C   0  0  0  0  0  0  0  0  0  0  0  0
   -3.6980   -2.5557    0.0000 C   0  0  0  0  0  0  0  0  0  0  0  0
   -2.6057   -1.5276    0.0000 C   0  0  0  0  0  0  0  0  0  0  0  0
   -2.9500   -0.0676    0.0000 C   0  0  0  0  0  0  0  0  0  0  0  0
   -1.8577    0.9604    0.0000 C   0  0  0  0  0  0  0  0  0  0  0  0
   -0.4212    0.5286    0.0000 C   0  0  0  0  0  0  0  0  0  0  0  0
    0.6711    1.5566    0.0000 C   0  0  0  0  0  0  0  0  0  0  0  0
    2.1075    1.1248    0.0000 N   0  0  0  0  0  0  0  0  0  0  0  0
    2.4518   -0.3352    0.0000 C   0  0  0  0  0  0  0  0  0  0  0  0
    3.8882   -0.7671    0.0000 C   0  0  0  0  0  0  0  0  0  0  0  0
    4.9805    0.2610    0.0000 N   0  0  0  0  0  0  0  0  0  0  0  0
    6.4170   -0.1709    0.0000 C   0  0  0  0  0  0  0  0  0  0  0  0
    6.7612   -1.6309    0.0000 C   0  0  0  0  0  0  0  0  0  0  0  0
    8.1977   -2.0627    0.0000 C   0  0  0  0  0  0  0  0  0  0  0  0
    9.2899   -1.0347    0.0000 C   0  0  0  0  0  0  0  0  0  0  0  0
    8.9457    0.4253    0.0000 C   0  0  0  0  0  0  0  0  0  0  0  0
    7.5092    0.8572    0.0000 C   0  0  0  0  0  0  0  0  0  0  0  0
    4.6363    1.7210    0.0000 C   0  0  0  0  0  0  0  0  0  0  0  0
    3.1998    2.1528    0.0000 C   0  0  0  0  0  0  0  0  0  0  0  0
  1  2  1  0
  2  3  1  0
  3  4  2  0
  4  5  1  0
  5  6  2  0
  6  7  1  0
  7  8  2  0
  8  9  1  0
  9 10  1  0
 10 11  1  0
 11 12  1  0
 12 13  1  0
 13 14  1  0
 14 15  1  0
 15 16  1  0
 16 17  1  0
 17 18  1  0
 18 19  1  0
 19 20  1  0
 20 21  1  0
 21 22  1  0
 22 23  1  0
 23 24  1  0
 24 25  1  0
 19 26  1  0
 26 27  1  0
  8  3  1  0
 27 16  1  0
 12  7  1  0
 25 20  1  0
M  END
>  <Compound_Key>  (652) 
PB28

>  <Ki>  (652) 
0.68

>  <database>  (652) 
NewLiterature

>  <Document_ChEMBL_ID>  (652) 
10.1016/j.bmc.2022.117032

$$$$

     RDKit          2D

 27 30  0  0  0  0  0  0  0  0999 V2000
   -9.4439   -0.8282    0.0000 C   0  0  0  0  0  0  0  0  0  0  0  0
   -8.0074   -1.2600    0.0000 O   0  0  0  0  0  0  0  0  0  0  0  0
   -6.9152   -0.2320    0.0000 C   0  0  0  0  0  0  0  0  0  0  0  0
   -7.2594    1.2280    0.0000 C   0  0  0  0  0  0  0  0  0  0  0  0
   -6.1671    2.2561    0.0000 C   0  0  0  0  0  0  0  0  0  0  0  0
   -4.7306    1.8242    0.0000 C   0  0  0  0  0  0  0  0  0  0  0  0
   -4.3864    0.3642    0.0000 C   0  0  0  0  0  0  0  0  0  0  0  0
   -5.4787   -0.6638    0.0000 C   0  0  0  0  0  0  0  0  0  0  0  0
   -5.1345   -2.1238    0.0000 C   0  0  0  0  0  0  0  0  0  0  0  0
   -3.6980   -2.5557    0.0000 C   0  0  0  0  0  0  0  0  0  0  0  0
   -2.6057   -1.5276    0.0000 C   0  0  0  0  0  0  0  0  0  0  0  0
   -2.9500   -0.0676    0.0000 C   0  0  0  0  0  0  0  0  0  0  0  0
   -1.8577    0.9604    0.0000 C   0  0  0  0  0  0  0  0  0  0  0  0
   -0.4212    0.5286    0.0000 C   0  0  0  0  0  0  0  0  0  0  0  0
    0.6711    1.5566    0.0000 C   0  0  0  0  0  0  0  0  0  0  0  0
    2.1075    1.1248    0.0000 N   0  0  0  0  0  0  0  0  0  0  0  0
    2.4518   -0.3352    0.0000 C   0  0  0  0  0  0  0  0  0  0  0  0
    3.8882   -0.7671    0.0000 C   0  0  0  0  0  0  0  0  0  0  0  0
    4.9805    0.2610    0.0000 C   0  0  0  0  0  0  0  0  0  0  0  0
    6.4170   -0.1709    0.0000 C   0  0  0  0  0  0  0  0  0  0  0  0
    6.7612   -1.6309    0.0000 C   0  0  0  0  0  0  0  0  0  0  0  0
    8.1977   -2.0627    0.0000 C   0  0  0  0  0  0  0  0  0  0  0  0
    9.2899   -1.0347    0.0000 C   0  0  0  0  0  0  0  0  0  0  0  0
    8.9457    0.4253    0.0000 C   0  0  0  0  0  0  0  0  0  0  0  0
    7.5092    0.8572    0.0000 C   0  0  0  0  0  0  0  0  0  0  0  0
    4.6363    1.7210    0.0000 C   0  0  0  0  0  0  0  0  0  0  0  0
    3.1998    2.1528    0.0000 C   0  0  0  0  0  0  0  0  0  0  0  0
  1  2  1  0
  2  3  1  0
  3  4  2  0
  4  5  1  0
  5  6  2  0
  6  7  1  0
  7  8  2  0
  8  9  1  0
  9 10  1  0
 10 11  1  0
 11 12  1  0
 12 13  1  0
 13 14  1  0
 14 15  1  0
 15 16  1  0
 16 17  1  0
 17 18  1  0
 18 19  1  0
 19 20  1  0
 20 21  1  0
 21 22  1  0
 22 23  1  0
 23 24  1  0
 24 25  1  0
 19 26  1  0
 26 27  1  0
  8  3  1  0
 27 16  1  0
 12  7  1  0
 25 20  1  0
M  END
>  <Compound_Key>  (653) 
PB221

>  <Ki>  (653) 
18.8

>  <database>  (653) 
NewLiterature

>  <Document_ChEMBL_ID>  (653) 
10.3390/ijms22126359

$$$$

     RDKit          2D

 28 31  0  0  0  0  0  0  0  0999 V2000
   -9.3439   -1.2074    0.0000 C   0  0  0  0  0  0  0  0  0  0  0  0
   -7.8792   -1.5308    0.0000 O   0  0  0  0  0  0  0  0  0  0  0  0
   -6.8668   -0.4240    0.0000 C   0  0  0  0  0  0  0  0  0  0  0  0
   -7.3191    1.0061    0.0000 C   0  0  0  0  0  0  0  0  0  0  0  0
   -6.3066    2.1129    0.0000 C   0  0  0  0  0  0  0  0  0  0  0  0
   -4.8419    1.7895    0.0000 C   0  0  0  0  0  0  0  0  0  0  0  0
   -4.3896    0.3593    0.0000 C   0  0  0  0  0  0  0  0  0  0  0  0
   -5.4020   -0.7474    0.0000 C   0  0  0  0  0  0  0  0  0  0  0  0
   -4.9498   -2.1776    0.0000 C   0  0  0  0  0  0  0  0  0  0  0  0
   -3.4850   -2.5010    0.0000 C   0  0  0  0  0  0  0  0  0  0  0  0
   -2.4726   -1.3942    0.0000 C   0  0  0  0  0  0  0  0  0  0  0  0
   -2.9249    0.0360    0.0000 C   0  0  0  0  0  0  0  0  0  0  0  0
   -1.9125    1.1427    0.0000 C   0  0  0  0  0  0  0  0  0  0  0  0
   -0.4477    0.8193    0.0000 C   0  0  0  0  0  0  0  0  0  0  0  0
    0.5647    1.9261    0.0000 C   0  0  0  0  0  0  0  0  0  0  0  0
    2.0294    1.6027    0.0000 N   0  0  0  0  0  0  0  0  0  0  0  0
    2.4817    0.1726    0.0000 C   0  0  0  0  0  0  0  0  0  0  0  0
    3.9464   -0.1508    0.0000 C   0  0  0  0  0  0  0  0  0  0  0  0
    4.9589    0.9559    0.0000 N   0  0  0  0  0  4  0  0  0  0  0  0
    6.2888    1.6497    0.0000 C   0  0  0  0  0  0  0  0  0  0  0  0
    5.8730   -0.2333    0.0000 C   0  0  0  0  0  0  0  0  0  0  0  0
    5.3002   -1.6196    0.0000 C   0  0  0  0  0  0  0  0  0  0  0  0
    6.2144   -2.8089    0.0000 C   0  0  0  0  0  0  0  0  0  0  0  0
    7.7014   -2.6118    0.0000 C   0  0  0  0  0  0  0  0  0  0  0  0
    8.2742   -1.2255    0.0000 C   0  0  0  0  0  0  0  0  0  0  0  0
    7.3600   -0.0362    0.0000 C   0  0  0  0  0  0  0  0  0  0  0  0
    4.5066    2.3861    0.0000 C   0  0  0  0  0  0  0  0  0  0  0  0
    3.0419    2.7095    0.0000 C   0  0  0  0  0  0  0  0  0  0  0  0
  1  2  1  0
  2  3  1  0
  3  4  2  0
  4  5  1  0
  5  6  2  0
  6  7  1  0
  7  8  2  0
  8  9  1  0
  9 10  1  0
 10 11  1  0
 11 12  1  0
 12 13  1  0
 13 14  1  0
 14 15  1  0
 15 16  1  0
 16 17  1  0
 17 18  1  0
 18 19  1  0
 19 20  1  0
 19 21  1  0
 21 22  1  0
 22 23  1  0
 23 24  1  0
 24 25  1  0
 25 26  1  0
 19 27  1  0
 27 28  1  0
  8  3  1  0
 28 16  1  0
 12  7  1  0
 26 21  1  0
M  CHG  1  19   1
M  END
>  <ChemBL_ID>  (654) 
CHEMBL1197504

>  <Ki>  (654) 
13.0

>  <database>  (654) 
SRSLDB

$$$$

     RDKit          2D

 28 31  0  0  0  0  0  0  0  0999 V2000
   -9.9555    1.2876    0.0000 C   0  0  0  0  0  0  0  0  0  0  0  0
   -8.8189    0.3087    0.0000 O   0  0  0  0  0  0  0  0  0  0  0  0
   -7.4029    0.8036    0.0000 C   0  0  0  0  0  0  0  0  0  0  0  0
   -7.1235    2.2774    0.0000 C   0  0  0  0  0  0  0  0  0  0  0  0
   -5.7075    2.7723    0.0000 C   0  0  0  0  0  0  0  0  0  0  0  0
   -4.5709    1.7935    0.0000 C   0  0  0  0  0  0  0  0  0  0  0  0
   -4.8503    0.3197    0.0000 C   0  0  0  0  0  0  0  0  0  0  0  0
   -6.2663   -0.1752    0.0000 C   0  0  0  0  0  0  0  0  0  0  0  0
   -6.5457   -1.6489    0.0000 C   0  0  0  0  0  0  0  0  0  0  0  0
   -5.4091   -2.6278    0.0000 C   0  0  0  0  0  0  0  0  0  0  0  0
   -3.9931   -2.1329    0.0000 C   0  0  0  0  0  0  0  0  0  0  0  0
   -3.7137   -0.6591    0.0000 C   0  0  0  0  0  0  0  0  0  0  0  0
   -2.2977   -0.1642    0.0000 C   0  0  0  0  0  0  0  0  0  0  0  0
   -1.1611   -1.1430    0.0000 C   0  0  0  0  0  0  0  0  0  0  0  0
    0.2549   -0.6481    0.0000 C   0  0  0  0  0  0  0  0  0  0  0  0
    1.3915   -1.6269    0.0000 C   0  0  0  0  0  0  0  0  0  0  0  0
    2.8075   -1.1320    0.0000 N   0  0  0  0  0  0  0  0  0  0  0  0
    3.9441   -2.1109    0.0000 C   0  0  0  0  0  0  0  0  0  0  0  0
    5.3601   -1.6159    0.0000 C   0  0  0  0  0  0  0  0  0  0  0  0
    5.6395   -0.1422    0.0000 N   0  0  0  0  0  0  0  0  0  0  0  0
    7.0555    0.3527    0.0000 C   0  0  0  0  0  0  0  0  0  0  0  0
    8.1921   -0.6261    0.0000 C   0  0  0  0  0  0  0  0  0  0  0  0
    9.6081   -0.1312    0.0000 C   0  0  0  0  0  0  0  0  0  0  0  0
    9.8875    1.3426    0.0000 C   0  0  0  0  0  0  0  0  0  0  0  0
    8.7509    2.3214    0.0000 C   0  0  0  0  0  0  0  0  0  0  0  0
    7.3349    1.8265    0.0000 C   0  0  0  0  0  0  0  0  0  0  0  0
    4.5029    0.8366    0.0000 C   0  0  0  0  0  0  0  0  0  0  0  0
    3.0869    0.3417    0.0000 C   0  0  0  0  0  0  0  0  0  0  0  0
  1  2  1  0
  2  3  1  0
  3  4  2  0
  4  5  1  0
  5  6  2  0
  6  7  1  0
  7  8  2  0
  8  9  1  0
  9 10  1  0
 10 11  1  0
 11 12  1  0
 12 13  1  0
 13 14  1  0
 14 15  1  0
 15 16  1  0
 16 17  1  0
 17 18  1  0
 18 19  1  0
 19 20  1  0
 20 21  1  0
 21 22  1  0
 22 23  1  0
 23 24  1  0
 24 25  1  0
 25 26  1  0
 20 27  1  0
 27 28  1  0
  8  3  1  0
 28 17  1  0
 12  7  1  0
 26 21  1  0
M  END
>  <ChemBL_ID>  (655) 
CHEMBL77220

>  <Compound_Key>  (655) 
37

>  <Ki>  (655) 
3.58

>  <database>  (655) 
CHEMBL

>  <Assay_ChEMBL_ID>  (655) 
CHEMBL807586

>  <Document_ChEMBL_ID>  (655) 
CHEMBL1148440

$$$$

     RDKit          2D

 31 36  0  0  0  0  0  0  0  0999 V2000
    3.0863    2.9972    0.0000 C   0  0  0  0  0  0  0  0  0  0  0  0
    2.6499    1.5621    0.0000 O   0  0  0  0  0  0  0  0  0  0  0  0
    3.6745    0.4666    0.0000 C   0  0  0  0  0  0  0  0  0  0  0  0
    3.2380   -0.9685    0.0000 C   0  0  0  0  0  0  0  0  0  0  0  0
    1.7769   -1.3081    0.0000 C   0  0  0  0  0  0  0  0  0  0  0  0
    1.3405   -2.7432    0.0000 O   0  0  0  0  0  0  0  0  0  0  0  0
    0.7523   -0.2125    0.0000 N   0  0  0  0  0  0  0  0  0  0  0  0
   -0.7087   -0.5521    0.0000 C   0  0  0  0  0  0  0  0  0  0  0  0
   -1.2928   -1.9337    0.0000 C   0  0  0  0  0  0  0  0  0  0  0  0
   -2.7873   -1.8051    0.0000 C   0  0  0  0  0  0  0  0  0  0  0  0
   -3.1268   -0.3441    0.0000 N   0  0  0  0  0  0  0  0  0  0  0  0
   -4.5084    0.2400    0.0000 C   0  0  0  0  0  0  0  0  0  0  0  0
   -5.7051   -0.6645    0.0000 C   0  0  0  0  0  0  0  0  0  0  0  0
   -5.8901    0.8241    0.0000 C   0  0  0  0  0  0  0  0  0  0  0  0
   -7.2717    1.4082    0.0000 C   0  0  0  0  0  0  0  0  0  0  0  0
   -8.4683    0.5037    0.0000 C   0  0  0  0  0  0  0  0  0  0  0  0
   -8.2833   -0.9848    0.0000 C   0  0  0  0  0  0  0  0  0  0  0  0
   -6.9017   -1.5689    0.0000 C   0  0  0  0  0  0  0  0  0  0  0  0
   -5.2775    0.3469    0.0000 C   0  0  0  0  0  0  0  0  0  0  0  0
   -4.6934    1.7286    0.0000 C   0  0  0  0  0  0  0  0  0  0  0  0
   -6.0750    2.3126    0.0000 C   0  0  0  0  0  0  0  0  0  0  0  0
   -1.8422    0.4303    0.0000 C   0  0  0  0  0  0  0  0  0  0  0  0
    4.2626   -2.0641    0.0000 C   0  0  0  0  0  0  0  0  0  0  0  0
    5.7237   -1.7245    0.0000 C   0  0  0  0  0  0  0  0  0  0  0  0
    6.7482   -2.8201    0.0000 Br  0  0  0  0  0  0  0  0  0  0  0  0
    6.1601   -0.2894    0.0000 C   0  0  0  0  0  0  0  0  0  0  0  0
    7.6212    0.0501    0.0000 C   0  0  0  0  0  0  0  0  0  0  0  0
    8.0577    1.4852    0.0000 C   0  0  0  0  0  0  0  0  0  0  0  0
    7.0331    2.5808    0.0000 C   0  0  0  0  0  0  0  0  0  0  0  0
    5.5720    2.2412    0.0000 C   0  0  0  0  0  0  0  0  0  0  0  0
    5.1355    0.8061    0.0000 C   0  0  0  0  0  0  0  0  0  0  0  0
  1  2  1  0
  2  3  1  0
  3  4  2  0
  4  5  1  0
  5  6  2  0
  5  7  1  0
  7  8  1  0
  8  9  1  0
  9 10  1  0
 10 11  1  0
 11 12  1  0
 12 13  1  0
 13 14  1  0
 14 15  1  0
 15 16  1  0
 16 17  1  0
 17 18  1  0
 17 19  1  0
 19 20  1  0
 20 21  1  0
 11 22  1  0
  4 23  1  0
 23 24  2  0
 24 25  1  0
 24 26  1  0
 26 27  2  0
 27 28  1  0
 28 29  2  0
 29 30  1  0
 30 31  2  0
 31  3  1  0
 22  8  1  0
 31 26  1  0
 20 12  1  0
 18 13  1  0
 21 15  1  0
M  END
>  <ChemBL_ID>  (656) 
CHEMBL62638

>  <Compound_Key>  (656) 
4

>  <Ki>  (656) 
70.0

>  <database>  (656) 
CHEMBL

>  <Assay_ChEMBL_ID>  (656) 
CHEMBL808105

>  <Document_ChEMBL_ID>  (656) 
CHEMBL1146691

$$$$

     RDKit          2D

 34 37  0  0  0  0  0  0  0  0999 V2000
    5.2974    2.8625    0.0000 C   0  0  0  0  0  0  0  0  0  0  0  0
    4.8005    1.4472    0.0000 O   0  0  0  0  0  0  0  0  0  0  0  0
    5.7777    0.3092    0.0000 C   0  0  0  0  0  0  0  0  0  0  0  0
    5.2808   -1.1061    0.0000 C   0  0  0  0  0  0  0  0  0  0  0  0
    3.8066   -1.3833    0.0000 C   0  0  0  0  0  0  0  0  0  0  0  0
    3.3097   -2.7986    0.0000 O   0  0  0  0  0  0  0  0  0  0  0  0
    2.8294   -0.2453    0.0000 N   0  0  0  0  0  0  0  0  0  0  0  0
    1.3553   -0.5226    0.0000 C   0  0  0  0  0  0  0  0  0  0  0  0
    0.3781    0.6154    0.0000 C   0  0  0  0  0  0  0  0  0  0  0  0
   -1.0961    0.3381    0.0000 C   0  0  0  0  0  0  0  0  0  0  0  0
   -2.0733    1.4761    0.0000 C   0  0  0  0  0  0  0  0  0  0  0  0
   -3.5475    1.1988    0.0000 N   0  0  0  0  0  0  0  0  0  0  0  0
   -4.5247    2.3368    0.0000 C   0  0  0  0  0  0  0  0  0  0  0  0
   -5.9988    2.0595    0.0000 C   0  0  0  0  0  0  0  0  0  0  0  0
   -6.4958    0.6443    0.0000 N   0  0  0  0  0  0  0  0  0  0  0  0
   -7.9699    0.3670    0.0000 C   0  0  0  0  0  0  0  0  0  0  0  0
   -8.9471    1.5050    0.0000 C   0  0  0  0  0  0  0  0  0  0  0  0
  -10.4213    1.2277    0.0000 C   0  0  0  0  0  0  0  0  0  0  0  0
  -10.9182   -0.1876    0.0000 C   0  0  0  0  0  0  0  0  0  0  0  0
   -9.9410   -1.3256    0.0000 C   0  0  0  0  0  0  0  0  0  0  0  0
  -10.4379   -2.7409    0.0000 Cl  0  0  0  0  0  0  0  0  0  0  0  0
   -8.4668   -1.0483    0.0000 C   0  0  0  0  0  0  0  0  0  0  0  0
   -7.4896   -2.1863    0.0000 Cl  0  0  0  0  0  0  0  0  0  0  0  0
   -5.5185   -0.4938    0.0000 C   0  0  0  0  0  0  0  0  0  0  0  0
   -4.0444   -0.2165    0.0000 C   0  0  0  0  0  0  0  0  0  0  0  0
    6.2580   -2.2441    0.0000 C   0  0  0  0  0  0  0  0  0  0  0  0
    7.7321   -1.9668    0.0000 C   0  0  0  0  0  0  0  0  0  0  0  0
    8.7093   -3.1048    0.0000 Br  0  0  0  0  0  0  0  0  0  0  0  0
    8.2291   -0.5515    0.0000 C   0  0  0  0  0  0  0  0  0  0  0  0
    9.7032   -0.2742    0.0000 C   0  0  0  0  0  0  0  0  0  0  0  0
   10.2001    1.1411    0.0000 C   0  0  0  0  0  0  0  0  0  0  0  0
    9.2229    2.2791    0.0000 C   0  0  0  0  0  0  0  0  0  0  0  0
    7.7488    2.0018    0.0000 C   0  0  0  0  0  0  0  0  0  0  0  0
    7.2519    0.5865    0.0000 C   0  0  0  0  0  0  0  0  0  0  0  0
  1  2  1  0
  2  3  1  0
  3  4  2  0
  4  5  1  0
  5  6  2  0
  5  7  1  0
  7  8  1  0
  8  9  1  0
  9 10  1  0
 10 11  1  0
 11 12  1  0
 12 13  1  0
 13 14  1  0
 14 15  1  0
 15 16  1  0
 16 17  2  0
 17 18  1  0
 18 19  2  0
 19 20  1  0
 20 21  1  0
 20 22  2  0
 22 23  1  0
 15 24  1  0
 24 25  1  0
  4 26  1  0
 26 27  2  0
 27 28  1  0
 27 29  1  0
 29 30  2  0
 30 31  1  0
 31 32  2  0
 32 33  1  0
 33 34  2  0
 34  3  1  0
 25 12  1  0
 34 29  1  0
 22 16  1  0
M  END
>  <ChemBL_ID>  (657) 
CHEMBL61789

>  <Compound_Key>  (657) 
16

>  <Ki>  (657) 
26.4

>  <database>  (657) 
CHEMBL

>  <Assay_ChEMBL_ID>  (657) 
CHEMBL808105

>  <Document_ChEMBL_ID>  (657) 
CHEMBL1146691

$$$$

     RDKit          2D

 32 34  0  0  0  0  0  0  0  0999 V2000
   -9.8286   -2.3749    0.0000 C   0  0  0  0  0  0  0  0  0  0  0  0
   -8.3564   -2.0873    0.0000 O   0  0  0  0  0  0  0  0  0  0  0  0
   -7.8694   -0.6686    0.0000 C   0  0  0  0  0  0  0  0  0  0  0  0
   -8.8545    0.4625    0.0000 C   0  0  0  0  0  0  0  0  0  0  0  0
   -8.3675    1.8813    0.0000 C   0  0  0  0  0  0  0  0  0  0  0  0
   -9.3526    3.0124    0.0000 Br  0  0  0  0  0  0  0  0  0  0  0  0
   -6.8953    2.1689    0.0000 C   0  0  0  0  0  0  0  0  0  0  0  0
   -5.9101    1.0377    0.0000 C   0  0  0  0  0  0  0  0  0  0  0  0
   -4.4380    1.3253    0.0000 C   0  0  0  0  0  0  0  0  0  0  0  0
   -3.9509    2.7440    0.0000 O   0  0  0  0  0  0  0  0  0  0  0  0
   -3.4528    0.1941    0.0000 N   0  0  0  0  0  0  0  0  0  0  0  0
   -1.9807    0.4817    0.0000 C   0  0  0  0  0  0  0  0  0  0  0  0
   -0.9955   -0.6495    0.0000 C   0  0  0  0  0  0  0  0  0  0  0  0
    0.4767   -0.3619    0.0000 C   0  0  0  0  0  0  0  0  0  0  0  0
    1.4618   -1.4930    0.0000 C   0  0  0  0  0  0  0  0  0  0  0  0
    2.9340   -1.2054    0.0000 N   0  0  0  0  0  0  0  0  0  0  0  0
    3.9191   -2.3366    0.0000 C   0  0  0  0  0  0  0  0  0  0  0  0
    5.3913   -2.0490    0.0000 C   0  0  0  0  0  0  0  0  0  0  0  0
    5.8783   -0.6303    0.0000 N   0  0  0  0  0  0  0  0  0  0  0  0
    7.3505   -0.3427    0.0000 C   0  0  0  0  0  0  0  0  0  0  0  0
    8.3356   -1.4739    0.0000 C   0  0  0  0  0  0  0  0  0  0  0  0
    9.8078   -1.1863    0.0000 C   0  0  0  0  0  0  0  0  0  0  0  0
   10.2948    0.2324    0.0000 C   0  0  0  0  0  0  0  0  0  0  0  0
    9.3097    1.3636    0.0000 C   0  0  0  0  0  0  0  0  0  0  0  0
    9.7967    2.7823    0.0000 Cl  0  0  0  0  0  0  0  0  0  0  0  0
    7.8375    1.0760    0.0000 C   0  0  0  0  0  0  0  0  0  0  0  0
    6.8524    2.2072    0.0000 Cl  0  0  0  0  0  0  0  0  0  0  0  0
    4.8932    0.5009    0.0000 C   0  0  0  0  0  0  0  0  0  0  0  0
    3.4210    0.2133    0.0000 C   0  0  0  0  0  0  0  0  0  0  0  0
   -6.3972   -0.3810    0.0000 C   0  0  0  0  0  0  0  0  0  0  0  0
   -5.4120   -1.5122    0.0000 O   0  0  0  0  0  0  0  0  0  0  0  0
   -5.8991   -2.9309    0.0000 C   0  0  0  0  0  0  0  0  0  0  0  0
  1  2  1  0
  2  3  1  0
  3  4  2  0
  4  5  1  0
  5  6  1  0
  5  7  2  0
  7  8  1  0
  8  9  1  0
  9 10  2  0
  9 11  1  0
 11 12  1  0
 12 13  1  0
 13 14  1  0
 14 15  1  0
 15 16  1  0
 16 17  1  0
 17 18  1  0
 18 19  1  0
 19 20  1  0
 20 21  2  0
 21 22  1  0
 22 23  2  0
 23 24  1  0
 24 25  1  0
 24 26  2  0
 26 27  1  0
 19 28  1  0
 28 29  1  0
  8 30  2  0
 30 31  1  0
 31 32  1  0
 30  3  1  0
 29 16  1  0
 26 20  1  0
M  END
>  <ChemBL_ID>  (658) 
CHEMBL59713

>  <Compound_Key>  (658) 
15

>  <Ki>  (658) 
75.0

>  <database>  (658) 
CHEMBL

>  <Assay_ChEMBL_ID>  (658) 
CHEMBL808105

>  <Document_ChEMBL_ID>  (658) 
CHEMBL1146691

$$$$

     RDKit          2D

 28 31  0  0  0  0  0  0  0  0999 V2000
    2.6451    2.9396    0.0000 C   0  0  0  0  0  0  0  0  0  0  0  0
    2.2253    1.4996    0.0000 O   0  0  0  0  0  0  0  0  0  0  0  0
    3.2625    0.4160    0.0000 C   0  0  0  0  0  0  0  0  0  0  0  0
    2.8426   -1.0241    0.0000 C   0  0  0  0  0  0  0  0  0  0  0  0
    1.3856   -1.3805    0.0000 C   0  0  0  0  0  0  0  0  0  0  0  0
    0.9657   -2.8205    0.0000 O   0  0  0  0  0  0  0  0  0  0  0  0
    0.3484   -0.2969    0.0000 N   0  0  0  0  0  0  0  0  0  0  0  0
   -1.1087   -0.6533    0.0000 C   0  0  0  0  0  0  0  0  0  0  0  0
   -2.1459    0.4303    0.0000 C   0  0  0  0  0  0  0  0  0  0  0  0
   -3.6029    0.0739    0.0000 N   0  0  0  0  0  0  0  0  0  0  0  0
   -4.0227   -1.3661    0.0000 C   0  0  0  0  0  0  0  0  0  0  0  0
   -5.4798   -1.7226    0.0000 C   0  0  0  0  0  0  0  0  0  0  0  0
   -6.5170   -0.6389    0.0000 C   0  0  0  0  0  0  0  0  0  0  0  0
   -7.9740   -0.9953    0.0000 C   0  0  0  0  0  0  0  0  0  0  0  0
   -9.0112    0.0883    0.0000 C   0  0  0  0  0  0  0  0  0  0  0  0
   -8.5913    1.5283    0.0000 C   0  0  0  0  0  0  0  0  0  0  0  0
   -7.1343    1.8847    0.0000 C   0  0  0  0  0  0  0  0  0  0  0  0
   -6.0971    0.8011    0.0000 C   0  0  0  0  0  0  0  0  0  0  0  0
   -4.6401    1.1575    0.0000 C   0  0  0  0  0  0  0  0  0  0  0  0
    3.8798   -2.1077    0.0000 C   0  0  0  0  0  0  0  0  0  0  0  0
    5.3368   -1.7513    0.0000 C   0  0  0  0  0  0  0  0  0  0  0  0
    6.3740   -2.8349    0.0000 Br  0  0  0  0  0  0  0  0  0  0  0  0
    5.7567   -0.3112    0.0000 C   0  0  0  0  0  0  0  0  0  0  0  0
    7.2137    0.0452    0.0000 C   0  0  0  0  0  0  0  0  0  0  0  0
    7.6336    1.4852    0.0000 C   0  0  0  0  0  0  0  0  0  0  0  0
    6.5964    2.5688    0.0000 C   0  0  0  0  0  0  0  0  0  0  0  0
    5.1393    2.2124    0.0000 C   0  0  0  0  0  0  0  0  0  0  0  0
    4.7195    0.7724    0.0000 C   0  0  0  0  0  0  0  0  0  0  0  0
  1  2  1  0
  2  3  1  0
  3  4  2  0
  4  5  1  0
  5  6  2  0
  5  7  1  0
  7  8  1  0
  8  9  1  0
  9 10  1  0
 10 11  1  0
 11 12  1  0
 12 13  1  0
 13 14  2  0
 14 15  1  0
 15 16  2  0
 16 17  1  0
 17 18  2  0
 18 19  1  0
  4 20  1  0
 20 21  2  0
 21 22  1  0
 21 23  1  0
 23 24  2  0
 24 25  1  0
 25 26  2  0
 26 27  1  0
 27 28  2  0
 28  3  1  0
 19 10  1  0
 28 23  1  0
 18 13  1  0
M  END
>  <ChemBL_ID>  (659) 
CHEMBL60133

>  <Compound_Key>  (659) 
11a

>  <Ki>  (659) 
47.7

>  <database>  (659) 
CHEMBL

>  <Assay_ChEMBL_ID>  (659) 
CHEMBL808105

>  <Document_ChEMBL_ID>  (659) 
CHEMBL1146691

$$$$

     RDKit          2D

 34 37  0  0  0  0  0  0  0  0999 V2000
  -11.3111    0.1721    0.0000 C   0  0  0  0  0  0  0  0  0  0  0  0
  -10.2805   -0.9177    0.0000 O   0  0  0  0  0  0  0  0  0  0  0  0
   -8.8213   -0.5700    0.0000 C   0  0  0  0  0  0  0  0  0  0  0  0
   -8.3928    0.8674    0.0000 C   0  0  0  0  0  0  0  0  0  0  0  0
   -6.9337    1.2151    0.0000 C   0  0  0  0  0  0  0  0  0  0  0  0
   -5.9030    0.1253    0.0000 C   0  0  0  0  0  0  0  0  0  0  0  0
   -6.3315   -1.3122    0.0000 C   0  0  0  0  0  0  0  0  0  0  0  0
   -7.7907   -1.6599    0.0000 C   0  0  0  0  0  0  0  0  0  0  0  0
   -8.2191   -3.0974    0.0000 O   0  0  0  0  0  0  0  0  0  0  0  0
   -7.1885   -4.1872    0.0000 C   0  0  0  0  0  0  0  0  0  0  0  0
   -4.4439    0.4730    0.0000 C   0  0  0  0  0  0  0  0  0  0  0  0
   -4.0154    1.9105    0.0000 N   0  0  0  0  0  0  0  0  0  0  0  0
   -2.5562    2.2581    0.0000 C   0  0  0  0  0  0  0  0  0  0  0  0
   -1.5256    1.1683    0.0000 C   0  0  0  0  0  0  0  0  0  0  0  0
   -0.0664    1.5160    0.0000 C   0  0  0  0  0  0  0  0  0  0  0  0
    0.9643    0.4261    0.0000 C   0  0  0  0  0  0  0  0  0  0  0  0
    2.4234    0.7738    0.0000 N   0  0  0  0  0  0  0  0  0  0  0  0
    3.4541   -0.3160    0.0000 C   0  0  0  0  0  0  0  0  0  0  0  0
    3.0256   -1.7535    0.0000 O   0  0  0  0  0  0  0  0  0  0  0  0
    4.9132    0.0316    0.0000 C   0  0  0  0  0  0  0  0  0  0  0  0
    5.3417    1.4691    0.0000 C   0  0  0  0  0  0  0  0  0  0  0  0
    6.8009    1.8168    0.0000 C   0  0  0  0  0  0  0  0  0  0  0  0
    7.2294    3.2543    0.0000 Br  0  0  0  0  0  0  0  0  0  0  0  0
    7.8315    0.7270    0.0000 C   0  0  0  0  0  0  0  0  0  0  0  0
    9.2907    1.0746    0.0000 C   0  0  0  0  0  0  0  0  0  0  0  0
   10.3213   -0.0152    0.0000 C   0  0  0  0  0  0  0  0  0  0  0  0
    9.8929   -1.4527    0.0000 C   0  0  0  0  0  0  0  0  0  0  0  0
    8.4337   -1.8003    0.0000 C   0  0  0  0  0  0  0  0  0  0  0  0
    7.4030   -0.7105    0.0000 C   0  0  0  0  0  0  0  0  0  0  0  0
    5.9439   -1.0582    0.0000 C   0  0  0  0  0  0  0  0  0  0  0  0
    5.5154   -2.4957    0.0000 O   0  0  0  0  0  0  0  0  0  0  0  0
    6.5461   -3.5855    0.0000 C   0  0  0  0  0  0  0  0  0  0  0  0
   -5.0460    3.0003    0.0000 C   0  0  0  0  0  0  0  0  0  0  0  0
   -6.5052    2.6526    0.0000 C   0  0  0  0  0  0  0  0  0  0  0  0
  1  2  1  0
  2  3  1  0
  3  4  2  0
  4  5  1  0
  5  6  2  0
  6  7  1  0
  7  8  2  0
  8  9  1  0
  9 10  1  0
  6 11  1  0
 11 12  1  0
 12 13  1  0
 13 14  1  0
 14 15  1  0
 15 16  1  0
 16 17  1  0
 17 18  1  0
 18 19  2  0
 18 20  1  0
 20 21  2  0
 21 22  1  0
 22 23  1  0
 22 24  2  0
 24 25  1  0
 25 26  2  0
 26 27  1  0
 27 28  2  0
 28 29  1  0
 29 30  2  0
 30 31  1  0
 31 32  1  0
 12 33  1  0
 33 34  1  0
  8  3  1  0
 30 20  1  0
 34  5  1  0
 29 24  1  0
M  END
>  <ChemBL_ID>  (660) 
CHEMBL60139

>  <Compound_Key>  (660) 
12

>  <Ki>  (660) 
17.6

>  <database>  (660) 
CHEMBL

>  <Assay_ChEMBL_ID>  (660) 
CHEMBL808105

>  <Document_ChEMBL_ID>  (660) 
CHEMBL1146691

$$$$

     RDKit          2D

 29 32  0  0  0  0  0  0  0  0999 V2000
  -10.7169   -0.6925    0.0000 C   0  0  0  0  0  0  0  0  0  0  0  0
   -9.3019   -1.1904    0.0000 O   0  0  0  0  0  0  0  0  0  0  0  0
   -8.1632   -0.2140    0.0000 C   0  0  0  0  0  0  0  0  0  0  0  0
   -8.4395    1.2603    0.0000 C   0  0  0  0  0  0  0  0  0  0  0  0
   -7.3008    2.2368    0.0000 C   0  0  0  0  0  0  0  0  0  0  0  0
   -5.8858    1.7388    0.0000 C   0  0  0  0  0  0  0  0  0  0  0  0
   -5.6096    0.2645    0.0000 C   0  0  0  0  0  0  0  0  0  0  0  0
   -6.7483   -0.7119    0.0000 C   0  0  0  0  0  0  0  0  0  0  0  0
   -6.4720   -2.1863    0.0000 C   0  0  0  0  0  0  0  0  0  0  0  0
   -5.0571   -2.6842    0.0000 C   0  0  0  0  0  0  0  0  0  0  0  0
   -3.9184   -1.7078    0.0000 C   0  0  0  0  0  0  0  0  0  0  0  0
   -4.1946   -0.2334    0.0000 C   0  0  0  0  0  0  0  0  0  0  0  0
   -3.0560    0.7430    0.0000 C   0  0  0  0  0  0  0  0  0  0  0  0
   -1.6410    0.2451    0.0000 C   0  0  0  0  0  0  0  0  0  0  0  0
   -0.5023    1.2215    0.0000 C   0  0  0  0  0  0  0  0  0  0  0  0
    0.9126    0.7236    0.0000 C   0  0  0  0  0  0  0  0  0  0  0  0
    2.0513    1.7000    0.0000 C   0  0  0  0  0  0  0  0  0  0  0  0
    3.4663    1.2021    0.0000 N   0  0  0  0  0  0  0  0  0  0  0  0
    3.7425   -0.2723    0.0000 C   0  0  0  0  0  0  0  0  0  0  0  0
    5.1575   -0.7702    0.0000 C   0  0  0  0  0  0  0  0  0  0  0  0
    6.2961    0.2062    0.0000 N   0  0  0  0  0  0  0  0  0  0  0  0
    7.7111   -0.2917    0.0000 C   0  0  0  0  0  0  0  0  0  0  0  0
    7.9874   -1.7661    0.0000 C   0  0  0  0  0  0  0  0  0  0  0  0
    9.4023   -2.2640    0.0000 C   0  0  0  0  0  0  0  0  0  0  0  0
   10.5410   -1.2876    0.0000 C   0  0  0  0  0  0  0  0  0  0  0  0
   10.2647    0.1868    0.0000 C   0  0  0  0  0  0  0  0  0  0  0  0
    8.8498    0.6847    0.0000 C   0  0  0  0  0  0  0  0  0  0  0  0
    6.0199    1.6805    0.0000 C   0  0  0  0  0  0  0  0  0  0  0  0
    4.6049    2.1785    0.0000 C   0  0  0  0  0  0  0  0  0  0  0  0
  1  2  1  0
  2  3  1  0
  3  4  2  0
  4  5  1  0
  5  6  2  0
  6  7  1  0
  7  8  2  0
  8  9  1  0
  9 10  1  0
 10 11  1  0
 11 12  1  0
 12 13  1  0
 13 14  1  0
 14 15  1  0
 15 16  1  0
 16 17  1  0
 17 18  1  0
 18 19  1  0
 19 20  1  0
 20 21  1  0
 21 22  1  0
 22 23  1  0
 23 24  1  0
 24 25  1  0
 25 26  1  0
 26 27  1  0
 21 28  1  0
 28 29  1  0
  8  3  1  0
 29 18  1  0
 12  7  1  0
 27 22  1  0
M  END
>  <ChemBL_ID>  (661) 
CHEMBL306365

>  <Compound_Key>  (661) 
39

>  <Ki>  (661) 
0.35

>  <database>  (661) 
CHEMBL

>  <Assay_ChEMBL_ID>  (661) 
CHEMBL807586

>  <Document_ChEMBL_ID>  (661) 
CHEMBL1148440

$$$$

     RDKit          2D

 32 35  0  0  0  0  0  0  0  0999 V2000
  -10.0226    0.5758    0.0000 C   0  0  0  0  0  0  0  0  0  0  0  0
   -9.0720   -0.5845    0.0000 O   0  0  0  0  0  0  0  0  0  0  0  0
   -7.5919   -0.3415    0.0000 C   0  0  0  0  0  0  0  0  0  0  0  0
   -7.0622    1.0619    0.0000 C   0  0  0  0  0  0  0  0  0  0  0  0
   -5.5821    1.3049    0.0000 C   0  0  0  0  0  0  0  0  0  0  0  0
   -4.6315    0.1446    0.0000 C   0  0  0  0  0  0  0  0  0  0  0  0
   -5.1611   -1.2588    0.0000 C   0  0  0  0  0  0  0  0  0  0  0  0
   -6.6413   -1.5018    0.0000 C   0  0  0  0  0  0  0  0  0  0  0  0
   -7.1709   -2.9052    0.0000 O   0  0  0  0  0  0  0  0  0  0  0  0
   -6.2203   -4.0656    0.0000 C   0  0  0  0  0  0  0  0  0  0  0  0
   -3.1513    0.3876    0.0000 C   0  0  0  0  0  0  0  0  0  0  0  0
   -2.6217    1.7910    0.0000 N   0  0  0  0  0  0  0  0  0  0  0  0
   -1.1415    2.0340    0.0000 C   0  0  0  0  0  0  0  0  0  0  0  0
   -0.1910    0.8737    0.0000 C   0  0  0  0  0  0  0  0  0  0  0  0
    1.2892    1.1167    0.0000 N   0  0  0  0  0  0  0  0  0  0  0  0
    2.2398   -0.0436    0.0000 C   0  0  0  0  0  0  0  0  0  0  0  0
    1.7102   -1.4470    0.0000 O   0  0  0  0  0  0  0  0  0  0  0  0
    3.7200    0.1994    0.0000 C   0  0  0  0  0  0  0  0  0  0  0  0
    4.2496    1.6028    0.0000 C   0  0  0  0  0  0  0  0  0  0  0  0
    5.7298    1.8458    0.0000 C   0  0  0  0  0  0  0  0  0  0  0  0
    6.2594    3.2492    0.0000 Br  0  0  0  0  0  0  0  0  0  0  0  0
    6.6803    0.6855    0.0000 C   0  0  0  0  0  0  0  0  0  0  0  0
    8.1605    0.9285    0.0000 C   0  0  0  0  0  0  0  0  0  0  0  0
    9.1111   -0.2318    0.0000 C   0  0  0  0  0  0  0  0  0  0  0  0
    8.5815   -1.6352    0.0000 C   0  0  0  0  0  0  0  0  0  0  0  0
    7.1013   -1.8783    0.0000 C   0  0  0  0  0  0  0  0  0  0  0  0
    6.1507   -0.7179    0.0000 C   0  0  0  0  0  0  0  0  0  0  0  0
    4.6705   -0.9609    0.0000 C   0  0  0  0  0  0  0  0  0  0  0  0
    4.1409   -2.3643    0.0000 O   0  0  0  0  0  0  0  0  0  0  0  0
    5.0915   -3.5247    0.0000 C   0  0  0  0  0  0  0  0  0  0  0  0
   -3.5723    2.9514    0.0000 C   0  0  0  0  0  0  0  0  0  0  0  0
   -5.0525    2.7083    0.0000 C   0  0  0  0  0  0  0  0  0  0  0  0
  1  2  1  0
  2  3  1  0
  3  4  2  0
  4  5  1  0
  5  6  2  0
  6  7  1  0
  7  8  2  0
  8  9  1  0
  9 10  1  0
  6 11  1  0
 11 12  1  0
 12 13  1  0
 13 14  1  0
 14 15  1  0
 15 16  1  0
 16 17  2  0
 16 18  1  0
 18 19  2  0
 19 20  1  0
 20 21  1  0
 20 22  2  0
 22 23  1  0
 23 24  2  0
 24 25  1  0
 25 26  2  0
 26 27  1  0
 27 28  2  0
 28 29  1  0
 29 30  1  0
 12 31  1  0
 31 32  1  0
  8  3  1  0
 28 18  1  0
 32  5  1  0
 27 22  1  0
M  END
>  <ChemBL_ID>  (662) 
CHEMBL60140

>  <Compound_Key>  (662) 
11b

>  <Ki>  (662) 
21.2

>  <database>  (662) 
CHEMBL

>  <Assay_ChEMBL_ID>  (662) 
CHEMBL808105

>  <Document_ChEMBL_ID>  (662) 
CHEMBL1146691

$$$$

     RDKit          2D

 30 33  0  0  0  0  0  0  0  0999 V2000
  -11.2489    1.2107    0.0000 C   0  0  0  0  0  0  0  0  0  0  0  0
  -10.0799    0.2707    0.0000 O   0  0  0  0  0  0  0  0  0  0  0  0
   -8.6814    0.8131    0.0000 C   0  0  0  0  0  0  0  0  0  0  0  0
   -8.4518    2.2954    0.0000 C   0  0  0  0  0  0  0  0  0  0  0  0
   -7.0533    2.8378    0.0000 C   0  0  0  0  0  0  0  0  0  0  0  0
   -5.8844    1.8979    0.0000 C   0  0  0  0  0  0  0  0  0  0  0  0
   -6.1139    0.4155    0.0000 C   0  0  0  0  0  0  0  0  0  0  0  0
   -7.5124   -0.1268    0.0000 C   0  0  0  0  0  0  0  0  0  0  0  0
   -7.7420   -1.6092    0.0000 C   0  0  0  0  0  0  0  0  0  0  0  0
   -6.5730   -2.5491    0.0000 C   0  0  0  0  0  0  0  0  0  0  0  0
   -5.1745   -2.0068    0.0000 C   0  0  0  0  0  0  0  0  0  0  0  0
   -4.9449   -0.5244    0.0000 C   0  0  0  0  0  0  0  0  0  0  0  0
   -3.5464    0.0179    0.0000 C   0  0  0  0  0  0  0  0  0  0  0  0
   -2.3775   -0.9220    0.0000 C   0  0  0  0  0  0  0  0  0  0  0  0
   -0.9790   -0.3797    0.0000 C   0  0  0  0  0  0  0  0  0  0  0  0
    0.1900   -1.3196    0.0000 C   0  0  0  0  0  0  0  0  0  0  0  0
    1.5885   -0.7773    0.0000 C   0  0  0  0  0  0  0  0  0  0  0  0
    2.7575   -1.7172    0.0000 C   0  0  0  0  0  0  0  0  0  0  0  0
    4.1560   -1.1748    0.0000 N   0  0  0  0  0  0  0  0  0  0  0  0
    5.3250   -2.1148    0.0000 C   0  0  0  0  0  0  0  0  0  0  0  0
    6.7235   -1.5724    0.0000 C   0  0  0  0  0  0  0  0  0  0  0  0
    6.9530   -0.0901    0.0000 N   0  0  0  0  0  0  0  0  0  0  0  0
    8.3515    0.4523    0.0000 C   0  0  0  0  0  0  0  0  0  0  0  0
    9.5205   -0.4877    0.0000 C   0  0  0  0  0  0  0  0  0  0  0  0
   10.9190    0.0547    0.0000 C   0  0  0  0  0  0  0  0  0  0  0  0
   11.1485    1.5370    0.0000 C   0  0  0  0  0  0  0  0  0  0  0  0
    9.9796    2.4770    0.0000 C   0  0  0  0  0  0  0  0  0  0  0  0
    8.5811    1.9346    0.0000 C   0  0  0  0  0  0  0  0  0  0  0  0
    5.7841    0.8499    0.0000 C   0  0  0  0  0  0  0  0  0  0  0  0
    4.3855    0.3075    0.0000 C   0  0  0  0  0  0  0  0  0  0  0  0
  1  2  1  0
  2  3  1  0
  3  4  2  0
  4  5  1  0
  5  6  2  0
  6  7  1  0
  7  8  2  0
  8  9  1  0
  9 10  1  0
 10 11  1  0
 11 12  1  0
 12 13  1  0
 13 14  1  0
 14 15  1  0
 15 16  1  0
 16 17  1  0
 17 18  1  0
 18 19  1  0
 19 20  1  0
 20 21  1  0
 21 22  1  0
 22 23  1  0
 23 24  1  0
 24 25  1  0
 25 26  1  0
 26 27  1  0
 27 28  1  0
 22 29  1  0
 29 30  1  0
  8  3  1  0
 30 19  1  0
 12  7  1  0
 28 23  1  0
M  END
>  <ChemBL_ID>  (663) 
CHEMBL74811

>  <Compound_Key>  (663) 
40

>  <Ki>  (663) 
103.0

>  <database>  (663) 
CHEMBL

>  <Assay_ChEMBL_ID>  (663) 
CHEMBL807586

>  <Document_ChEMBL_ID>  (663) 
CHEMBL1148440

$$$$

     RDKit          2D

 29 33  0  0  0  0  0  0  0  0999 V2000
   -7.4807   -2.0861    0.0000 C   0  0  0  0  0  0  0  0  0  0  0  0
   -6.1376   -1.4183    0.0000 O   0  0  0  0  0  0  0  0  0  0  0  0
   -6.0444    0.0788    0.0000 C   0  0  0  0  0  0  0  0  0  0  0  0
   -7.2943    0.9081    0.0000 C   0  0  0  0  0  0  0  0  0  0  0  0
   -7.2010    2.4052    0.0000 C   0  0  0  0  0  0  0  0  0  0  0  0
   -5.8579    3.0730    0.0000 C   0  0  0  0  0  0  0  0  0  0  0  0
   -4.6080    2.2437    0.0000 C   0  0  0  0  0  0  0  0  0  0  0  0
   -4.7012    0.7466    0.0000 C   0  0  0  0  0  0  0  0  0  0  0  0
   -3.4513   -0.0827    0.0000 N   0  0  0  0  0  0  0  0  0  0  0  0
   -3.5445   -1.5798    0.0000 C   0  0  0  0  0  0  0  0  0  0  0  0
   -2.2946   -2.4091    0.0000 C   0  0  0  0  0  0  0  0  0  0  0  0
   -0.9515   -1.7413    0.0000 N   0  0  0  0  0  0  0  0  0  0  0  0
    0.2984   -2.5706    0.0000 C   0  0  0  0  0  0  0  0  0  0  0  0
    1.6416   -1.9028    0.0000 C   0  0  0  0  0  0  0  0  0  0  0  0
    2.9713   -2.5968    0.0000 C   0  0  0  0  0  0  0  0  0  0  0  0
    4.0424   -1.5467    0.0000 N   0  0  0  0  0  0  0  0  0  0  0  0
    5.5395   -1.6399    0.0000 C   0  0  0  0  0  0  0  0  0  0  0  0
    6.2073   -2.9830    0.0000 O   0  0  0  0  0  0  0  0  0  0  0  0
    6.3688   -0.3900    0.0000 N   0  0  0  0  0  0  0  0  0  0  0  0
    5.7009    0.9531    0.0000 C   0  0  0  0  0  0  0  0  0  0  0  0
    6.5302    2.2031    0.0000 C   0  0  0  0  0  0  0  0  0  0  0  0
    5.8624    3.5462    0.0000 C   0  0  0  0  0  0  0  0  0  0  0  0
    4.3653    3.6394    0.0000 C   0  0  0  0  0  0  0  0  0  0  0  0
    3.5360    2.3895    0.0000 C   0  0  0  0  0  0  0  0  0  0  0  0
    4.2038    1.0464    0.0000 C   0  0  0  0  0  0  0  0  0  0  0  0
    3.3746   -0.2035    0.0000 C   0  0  0  0  0  0  0  0  0  0  0  0
    1.8908   -0.4236    0.0000 N   0  0  0  0  0  0  0  0  0  0  0  0
   -0.8582   -0.2442    0.0000 C   0  0  0  0  0  0  0  0  0  0  0  0
   -2.1082    0.5851    0.0000 C   0  0  0  0  0  0  0  0  0  0  0  0
  1  2  1  0
  2  3  1  0
  3  4  2  0
  4  5  1  0
  5  6  2  0
  6  7  1  0
  7  8  2  0
  8  9  1  0
  9 10  1  0
 10 11  1  0
 11 12  1  0
 12 13  1  0
 13 14  1  0
 14 15  2  0
 15 16  1  0
 16 17  1  0
 17 18  1  0
 17 19  2  0
 19 20  1  0
 20 21  2  0
 21 22  1  0
 22 23  2  0
 23 24  1  0
 24 25  2  0
 25 26  1  0
 26 27  2  0
 12 28  1  0
 28 29  1  0
  8  3  1  0
 29  9  1  0
 27 14  1  0
 26 16  1  0
 25 20  1  0
M  END
>  <ChemBL_ID>  (664) 
CHEMBL106186

>  <Compound_Key>  (664) 
44a

>  <Ki>  (664) 
4880.0

>  <database>  (664) 
CHEMBL

>  <Assay_ChEMBL_ID>  (664) 
CHEMBL805744

>  <Document_ChEMBL_ID>  (664) 
CHEMBL1131058

$$$$

     RDKit          2D

 26 28  0  0  0  0  0  0  0  0999 V2000
   -7.3981   -2.1549    0.0000 C   0  0  0  0  0  0  0  0  0  0  0  0
   -5.9068   -1.9940    0.0000 O   0  0  0  0  0  0  0  0  0  0  0  0
   -5.3004   -0.6220    0.0000 C   0  0  0  0  0  0  0  0  0  0  0  0
   -6.1854    0.5891    0.0000 C   0  0  0  0  0  0  0  0  0  0  0  0
   -5.5790    1.9611    0.0000 C   0  0  0  0  0  0  0  0  0  0  0  0
   -6.4640    3.1722    0.0000 Br  0  0  0  0  0  0  0  0  0  0  0  0
   -4.0877    2.1220    0.0000 C   0  0  0  0  0  0  0  0  0  0  0  0
   -3.2027    0.9108    0.0000 C   0  0  0  0  0  0  0  0  0  0  0  0
   -1.7113    1.0717    0.0000 C   0  0  0  0  0  0  0  0  0  0  0  0
   -1.1050    2.4437    0.0000 O   0  0  0  0  0  0  0  0  0  0  0  0
   -0.8264   -0.1394    0.0000 N   0  0  0  0  0  0  0  0  0  0  0  0
    0.6650    0.0215    0.0000 C   0  0  0  0  0  0  0  0  0  0  0  0
    1.5500   -1.1896    0.0000 C   0  0  0  0  0  0  0  0  0  0  0  0
    3.0413   -1.0288    0.0000 N   0  0  0  0  0  0  0  0  0  0  0  0
    3.9263   -2.2399    0.0000 C   0  0  0  0  0  0  0  0  0  0  0  0
    5.4177   -2.0790    0.0000 C   0  0  0  0  0  0  0  0  0  0  0  0
    6.0240   -0.7070    0.0000 C   0  0  0  0  0  0  0  0  0  0  0  0
    7.5154   -0.5461    0.0000 C   0  0  0  0  0  0  0  0  0  0  0  0
    8.1217    0.8258    0.0000 C   0  0  0  0  0  0  0  0  0  0  0  0
    7.2367    2.0369    0.0000 C   0  0  0  0  0  0  0  0  0  0  0  0
    5.7454    1.8761    0.0000 C   0  0  0  0  0  0  0  0  0  0  0  0
    5.1390    0.5041    0.0000 C   0  0  0  0  0  0  0  0  0  0  0  0
    3.6477    0.3432    0.0000 C   0  0  0  0  0  0  0  0  0  0  0  0
   -3.8091   -0.4611    0.0000 C   0  0  0  0  0  0  0  0  0  0  0  0
   -2.9241   -1.6722    0.0000 O   0  0  0  0  0  0  0  0  0  0  0  0
   -3.5304   -3.0442    0.0000 C   0  0  0  0  0  0  0  0  0  0  0  0
  1  2  1  0
  2  3  1  0
  3  4  2  0
  4  5  1  0
  5  6  1  0
  5  7  2  0
  7  8  1  0
  8  9  1  0
  9 10  2  0
  9 11  1  0
 11 12  1  0
 12 13  1  0
 13 14  1  0
 14 15  1  0
 15 16  1  0
 16 17  1  0
 17 18  2  0
 18 19  1  0
 19 20  2  0
 20 21  1  0
 21 22  2  0
 22 23  1  0
  8 24  2  0
 24 25  1  0
 25 26  1  0
 24  3  1  0
 23 14  1  0
 22 17  1  0
M  END
>  <ChemBL_ID>  (665) 
CHEMBL305366

>  <Compound_Key>  (665) 
13a

>  <Ki>  (665) 
716.5

>  <database>  (665) 
CHEMBL

>  <Assay_ChEMBL_ID>  (665) 
CHEMBL808105

>  <Document_ChEMBL_ID>  (665) 
CHEMBL1146691

$$$$

     RDKit          2D

 24 26  0  0  0  0  0  0  0  0999 V2000
   -3.8768   -3.4649    0.0000 C   0  0  0  0  0  0  0  0  0  0  0  0
   -3.3569   -2.0579    0.0000 O   0  0  0  0  0  0  0  0  0  0  0  0
   -4.3155   -0.9041    0.0000 C   0  0  0  0  0  0  0  0  0  0  0  0
   -5.7940   -1.1575    0.0000 C   0  0  0  0  0  0  0  0  0  0  0  0
   -6.7526   -0.0037    0.0000 C   0  0  0  0  0  0  0  0  0  0  0  0
   -6.2327    1.4033    0.0000 C   0  0  0  0  0  0  0  0  0  0  0  0
   -7.1913    2.5570    0.0000 Br  0  0  0  0  0  0  0  0  0  0  0  0
   -4.7543    1.6566    0.0000 C   0  0  0  0  0  0  0  0  0  0  0  0
   -3.7957    0.5029    0.0000 C   0  0  0  0  0  0  0  0  0  0  0  0
   -2.3172    0.7562    0.0000 C   0  0  0  0  0  0  0  0  0  0  0  0
   -1.7974    2.1632    0.0000 O   0  0  0  0  0  0  0  0  0  0  0  0
   -1.3586   -0.3975    0.0000 N   0  0  0  0  0  0  0  0  0  0  0  0
    0.1198   -0.1442    0.0000 C   0  0  0  0  0  0  0  0  0  0  0  0
    1.0784   -1.2979    0.0000 C   0  0  0  0  0  0  0  0  0  0  0  0
    2.5569   -1.0446    0.0000 N   0  0  0  0  0  0  0  0  0  0  0  0
    3.5155   -2.1984    0.0000 C   0  0  0  0  0  0  0  0  0  0  0  0
    4.9939   -1.9450    0.0000 C   0  0  0  0  0  0  0  0  0  0  0  0
    5.5138   -0.5380    0.0000 C   0  0  0  0  0  0  0  0  0  0  0  0
    6.9923   -0.2847    0.0000 C   0  0  0  0  0  0  0  0  0  0  0  0
    7.5121    1.1223    0.0000 C   0  0  0  0  0  0  0  0  0  0  0  0
    6.5535    2.2761    0.0000 C   0  0  0  0  0  0  0  0  0  0  0  0
    5.0750    2.0228    0.0000 C   0  0  0  0  0  0  0  0  0  0  0  0
    4.5552    0.6157    0.0000 C   0  0  0  0  0  0  0  0  0  0  0  0
    3.0767    0.3624    0.0000 C   0  0  0  0  0  0  0  0  0  0  0  0
  1  2  1  0
  2  3  1  0
  3  4  2  0
  4  5  1  0
  5  6  2  0
  6  7  1  0
  6  8  1  0
  8  9  2  0
  9 10  1  0
 10 11  2  0
 10 12  1  0
 12 13  1  0
 13 14  1  0
 14 15  1  0
 15 16  1  0
 16 17  1  0
 17 18  1  0
 18 19  2  0
 19 20  1  0
 20 21  2  0
 21 22  1  0
 22 23  2  0
 23 24  1  0
  9  3  1  0
 24 15  1  0
 23 18  1  0
M  END
>  <ChemBL_ID>  (666) 
CHEMBL64751

>  <Compound_Key>  (666) 
17

>  <Ki>  (666) 
89.4

>  <database>  (666) 
CHEMBL

>  <Assay_ChEMBL_ID>  (666) 
CHEMBL808105

>  <Document_ChEMBL_ID>  (666) 
CHEMBL1146691

$$$$

     RDKit          2D

 15 16  0  0  0  0  0  0  0  0999 V2000
   -5.1962   -1.0000    0.0000 C   0  0  0  0  0  0  0  0  0  0  0  0
   -5.1962    0.5000    0.0000 C   0  0  0  0  0  0  0  0  0  0  0  0
   -3.8971    1.2500    0.0000 C   0  0  0  0  0  0  0  0  0  0  0  0
   -2.5981    0.5000    0.0000 C   0  0  0  0  0  0  0  0  0  0  0  0
   -1.2990    1.2500    0.0000 C   0  0  0  0  0  0  0  0  0  0  0  0
   -0.0000    0.5000    0.0000 C   0  0  0  0  0  0  0  0  0  0  0  0
    1.2990    1.2500    0.0000 C   0  0  0  0  0  0  0  0  0  0  0  0
    2.5981    0.5000    0.0000 N   0  0  0  0  0  0  0  0  0  0  0  0
    2.5981   -1.0000    0.0000 C   0  0  0  0  0  0  0  0  0  0  0  0
    3.8971   -1.7500    0.0000 C   0  0  0  0  0  0  0  0  0  0  0  0
    5.1962   -1.0000    0.0000 C   0  0  0  0  0  0  0  0  0  0  0  0
    5.1962    0.5000    0.0000 C   0  0  0  0  0  0  0  0  0  0  0  0
    3.8971    1.2500    0.0000 C   0  0  0  0  0  0  0  0  0  0  0  0
   -2.5981   -1.0000    0.0000 C   0  0  0  0  0  0  0  0  0  0  0  0
   -3.8971   -1.7500    0.0000 C   0  0  0  0  0  0  0  0  0  0  0  0
  1  2  2  0
  2  3  1  0
  3  4  2  0
  4  5  1  0
  5  6  1  0
  6  7  1  0
  7  8  1  0
  8  9  1  0
  9 10  1  0
 10 11  1  0
 11 12  1  0
 12 13  1  0
  4 14  1  0
 14 15  2  0
 15  1  1  0
 13  8  1  0
M  END
>  <ChemBL_ID>  (667) 
CHEMBL148108

>  <Compound_Key>  (667) 
10

>  <Ki>  (667) 
25.0

>  <database>  (667) 
CHEMBL

>  <Assay_ChEMBL_ID>  (667) 
CHEMBL808278

>  <Document_ChEMBL_ID>  (667) 
CHEMBL1135051

$$$$

     RDKit          2D

 21 23  0  0  0  0  0  0  0  0999 V2000
   -7.2334   -1.6918    0.0000 C   0  0  0  0  0  0  0  0  0  0  0  0
   -7.5185   -0.2191    0.0000 C   0  0  0  0  0  0  0  0  0  0  0  0
   -6.3858    0.7642    0.0000 C   0  0  0  0  0  0  0  0  0  0  0  0
   -4.9679    0.2748    0.0000 C   0  0  0  0  0  0  0  0  0  0  0  0
   -3.8351    1.2581    0.0000 C   0  0  0  0  0  0  0  0  0  0  0  0
   -2.4172    0.7688    0.0000 C   0  0  0  0  0  0  0  0  0  0  0  0
   -1.2844    1.7521    0.0000 C   0  0  0  0  0  0  0  0  0  0  0  0
    0.1335    1.2627    0.0000 N   0  0  0  0  0  0  0  0  0  0  0  0
    0.4187   -0.2099    0.0000 C   0  0  0  0  0  0  0  0  0  0  0  0
    1.8366   -0.6993    0.0000 C   0  0  0  0  0  0  0  0  0  0  0  0
    2.9694    0.2840    0.0000 N   0  0  0  0  0  0  0  0  0  0  0  0
    4.3873   -0.2054    0.0000 C   0  0  0  0  0  0  0  0  0  0  0  0
    4.6725   -1.6780    0.0000 C   0  0  0  0  0  0  0  0  0  0  0  0
    6.0904   -2.1673    0.0000 C   0  0  0  0  0  0  0  0  0  0  0  0
    7.2232   -1.1841    0.0000 C   0  0  0  0  0  0  0  0  0  0  0  0
    6.9380    0.2886    0.0000 C   0  0  0  0  0  0  0  0  0  0  0  0
    5.5201    0.7779    0.0000 N   0  0  0  0  0  0  0  0  0  0  0  0
    2.6842    1.7566    0.0000 C   0  0  0  0  0  0  0  0  0  0  0  0
    1.2663    2.2460    0.0000 C   0  0  0  0  0  0  0  0  0  0  0  0
   -4.6827   -1.1978    0.0000 C   0  0  0  0  0  0  0  0  0  0  0  0
   -5.8154   -2.1811    0.0000 C   0  0  0  0  0  0  0  0  0  0  0  0
  1  2  2  0
  2  3  1  0
  3  4  2  0
  4  5  1  0
  5  6  1  0
  6  7  1  0
  7  8  1  0
  8  9  1  0
  9 10  1  0
 10 11  1  0
 11 12  1  0
 12 13  2  0
 13 14  1  0
 14 15  2  0
 15 16  1  0
 16 17  2  0
 11 18  1  0
 18 19  1  0
  4 20  1  0
 20 21  2  0
 21  1  1  0
 19  8  1  0
 17 12  1  0
M  END
>  <ChemBL_ID>  (668) 
CHEMBL145867

>  <Compound_Key>  (668) 
18

>  <Ki>  (668) 
4.91

>  <database>  (668) 
CHEMBL

>  <Assay_ChEMBL_ID>  (668) 
CHEMBL808278

>  <Document_ChEMBL_ID>  (668) 
CHEMBL1135051

$$$$

     RDKit          2D

 19 21  0  0  0  0  0  0  0  0999 V2000
   -6.1676    1.5866    0.0000 C   0  0  0  0  0  0  0  0  0  0  0  0
   -4.7474    2.0693    0.0000 C   0  0  0  0  0  0  0  0  0  0  0  0
   -3.6192    1.0807    0.0000 C   0  0  0  0  0  0  0  0  0  0  0  0
   -3.9113   -0.3906    0.0000 C   0  0  0  0  0  0  0  0  0  0  0  0
   -2.7832   -1.3792    0.0000 C   0  0  0  0  0  0  0  0  0  0  0  0
   -1.3630   -0.8965    0.0000 C   0  0  0  0  0  0  0  0  0  0  0  0
   -0.2348   -1.8851    0.0000 C   0  0  0  0  0  0  0  0  0  0  0  0
    1.1854   -1.4024    0.0000 N   0  0  0  0  0  0  0  0  0  0  0  0
    2.3135   -2.3910    0.0000 C   0  0  0  0  0  0  0  0  0  0  0  0
    3.7337   -1.9083    0.0000 C   0  0  0  0  0  0  0  0  0  0  0  0
    4.0258   -0.4370    0.0000 C   0  0  0  0  0  0  0  0  0  0  0  0
    5.4460    0.0457    0.0000 C   0  0  0  0  0  0  0  0  0  0  0  0
    5.7381    1.5170    0.0000 C   0  0  0  0  0  0  0  0  0  0  0  0
    4.6100    2.5056    0.0000 C   0  0  0  0  0  0  0  0  0  0  0  0
    3.1898    2.0229    0.0000 C   0  0  0  0  0  0  0  0  0  0  0  0
    2.8977    0.5516    0.0000 C   0  0  0  0  0  0  0  0  0  0  0  0
    1.4775    0.0689    0.0000 C   0  0  0  0  0  0  0  0  0  0  0  0
   -5.3315   -0.8733    0.0000 C   0  0  0  0  0  0  0  0  0  0  0  0
   -6.4596    0.1153    0.0000 C   0  0  0  0  0  0  0  0  0  0  0  0
  1  2  2  0
  2  3  1  0
  3  4  2  0
  4  5  1  0
  5  6  1  0
  6  7  1  0
  7  8  1  0
  8  9  1  0
  9 10  1  0
 10 11  1  0
 11 12  2  0
 12 13  1  0
 13 14  2  0
 14 15  1  0
 15 16  2  0
 16 17  1  0
  4 18  1  0
 18 19  2  0
 19  1  1  0
 17  8  1  0
 16 11  1  0
M  END
>  <ChemBL_ID>  (669) 
CHEMBL145921

>  <Compound_Key>  (669) 
16

>  <Ki>  (669) 
14.2

>  <database>  (669) 
CHEMBL

>  <Assay_ChEMBL_ID>  (669) 
CHEMBL808278

>  <Document_ChEMBL_ID>  (669) 
CHEMBL1135051

$$$$

     RDKit          2D

 16 17  0  0  0  0  0  0  0  0999 V2000
   -3.8397   -2.8087    0.0000 C   0  0  0  0  0  0  0  0  0  0  0  0
   -3.7444   -1.3117    0.0000 C   0  0  0  0  0  0  0  0  0  0  0  0
   -4.9932   -0.4807    0.0000 C   0  0  0  0  0  0  0  0  0  0  0  0
   -4.8979    1.0162    0.0000 C   0  0  0  0  0  0  0  0  0  0  0  0
   -3.5539    1.6822    0.0000 C   0  0  0  0  0  0  0  0  0  0  0  0
   -2.3051    0.8512    0.0000 N   0  0  0  0  0  0  0  0  0  0  0  0
   -0.9611    1.5172    0.0000 C   0  0  0  0  0  0  0  0  0  0  0  0
    0.2877    0.6862    0.0000 C   0  0  0  0  0  0  0  0  0  0  0  0
    1.6318    1.3522    0.0000 C   0  0  0  0  0  0  0  0  0  0  0  0
    2.8806    0.5212    0.0000 C   0  0  0  0  0  0  0  0  0  0  0  0
    2.7853   -0.9757    0.0000 C   0  0  0  0  0  0  0  0  0  0  0  0
    4.0341   -1.8067    0.0000 C   0  0  0  0  0  0  0  0  0  0  0  0
    5.3781   -1.1407    0.0000 C   0  0  0  0  0  0  0  0  0  0  0  0
    5.4734    0.3562    0.0000 C   0  0  0  0  0  0  0  0  0  0  0  0
    4.2246    1.1872    0.0000 C   0  0  0  0  0  0  0  0  0  0  0  0
   -2.4004   -0.6457    0.0000 C   0  0  0  0  0  0  0  0  0  0  0  0
  1  2  1  0
  2  3  1  0
  3  4  1  0
  4  5  1  0
  5  6  1  0
  6  7  1  0
  7  8  1  0
  8  9  1  0
  9 10  1  0
 10 11  2  0
 11 12  1  0
 12 13  2  0
 13 14  1  0
 14 15  2  0
  6 16  1  0
 16  2  1  0
 15 10  1  0
M  END
>  <ChemBL_ID>  (670) 
CHEMBL146239

>  <Compound_Key>  (670) 
12

>  <Ki>  (670) 
6.61

>  <database>  (670) 
CHEMBL

>  <Assay_ChEMBL_ID>  (670) 
CHEMBL808278

>  <Document_ChEMBL_ID>  (670) 
CHEMBL1135051

$$$$

     RDKit          2D

 18 20  0  0  0  0  0  0  0  0999 V2000
   -6.2623    0.1850    0.0000 C   0  0  0  0  0  0  0  0  0  0  0  0
   -5.5643    1.5127    0.0000 C   0  0  0  0  0  0  0  0  0  0  0  0
   -4.0655    1.5722    0.0000 C   0  0  0  0  0  0  0  0  0  0  0  0
   -3.2646    0.3039    0.0000 C   0  0  0  0  0  0  0  0  0  0  0  0
   -1.7658    0.3633    0.0000 C   0  0  0  0  0  0  0  0  0  0  0  0
   -0.9649   -0.9050    0.0000 C   0  0  0  0  0  0  0  0  0  0  0  0
    0.5339   -0.8455    0.0000 N   0  0  0  0  0  0  0  0  0  0  0  0
    1.3348   -2.1138    0.0000 C   0  0  0  0  0  0  0  0  0  0  0  0
    2.8336   -2.0544    0.0000 C   0  0  0  0  0  0  0  0  0  0  0  0
    3.5316   -0.7266    0.0000 C   0  0  0  0  0  0  0  0  0  0  0  0
    5.0304   -0.6672    0.0000 C   0  0  0  0  0  0  0  0  0  0  0  0
    5.7283    0.6606    0.0000 C   0  0  0  0  0  0  0  0  0  0  0  0
    4.9274    1.9289    0.0000 C   0  0  0  0  0  0  0  0  0  0  0  0
    3.4286    1.8694    0.0000 C   0  0  0  0  0  0  0  0  0  0  0  0
    2.7307    0.5417    0.0000 C   0  0  0  0  0  0  0  0  0  0  0  0
    1.2319    0.4822    0.0000 C   0  0  0  0  0  0  0  0  0  0  0  0
   -3.9625   -1.0239    0.0000 C   0  0  0  0  0  0  0  0  0  0  0  0
   -5.4614   -1.0833    0.0000 C   0  0  0  0  0  0  0  0  0  0  0  0
  1  2  2  0
  2  3  1  0
  3  4  2  0
  4  5  1  0
  5  6  1  0
  6  7  1  0
  7  8  1  0
  8  9  1  0
  9 10  1  0
 10 11  2  0
 11 12  1  0
 12 13  2  0
 13 14  1  0
 14 15  2  0
 15 16  1  0
  4 17  1  0
 17 18  2  0
 18  1  1  0
 16  7  1  0
 15 10  1  0
M  END
>  <ChemBL_ID>  (671) 
CHEMBL146238

>  <Compound_Key>  (671) 
15

>  <Ki>  (671) 
57.3

>  <database>  (671) 
CHEMBL

>  <Assay_ChEMBL_ID>  (671) 
CHEMBL808278

>  <Document_ChEMBL_ID>  (671) 
CHEMBL1135051

$$$$

     RDKit          2D

 16 17  0  0  0  0  0  0  0  0999 V2000
   -6.1619   -1.3423    0.0000 C   0  0  0  0  0  0  0  0  0  0  0  0
   -4.8279   -0.6564    0.0000 C   0  0  0  0  0  0  0  0  0  0  0  0
   -4.7549    0.8418    0.0000 C   0  0  0  0  0  0  0  0  0  0  0  0
   -3.4209    1.5277    0.0000 C   0  0  0  0  0  0  0  0  0  0  0  0
   -2.1599    0.7153    0.0000 N   0  0  0  0  0  0  0  0  0  0  0  0
   -0.8259    1.4012    0.0000 C   0  0  0  0  0  0  0  0  0  0  0  0
    0.4351    0.5889    0.0000 C   0  0  0  0  0  0  0  0  0  0  0  0
    1.7691    1.2748    0.0000 C   0  0  0  0  0  0  0  0  0  0  0  0
    3.0301    0.4625    0.0000 C   0  0  0  0  0  0  0  0  0  0  0  0
    2.9571   -1.0358    0.0000 C   0  0  0  0  0  0  0  0  0  0  0  0
    4.2181   -1.8481    0.0000 C   0  0  0  0  0  0  0  0  0  0  0  0
    5.5521   -1.1622    0.0000 C   0  0  0  0  0  0  0  0  0  0  0  0
    5.6251    0.3360    0.0000 C   0  0  0  0  0  0  0  0  0  0  0  0
    4.3641    1.1483    0.0000 C   0  0  0  0  0  0  0  0  0  0  0  0
   -2.2329   -0.7829    0.0000 C   0  0  0  0  0  0  0  0  0  0  0  0
   -3.5669   -1.4688    0.0000 C   0  0  0  0  0  0  0  0  0  0  0  0
  1  2  1  0
  2  3  1  0
  3  4  1  0
  4  5  1  0
  5  6  1  0
  6  7  1  0
  7  8  1  0
  8  9  1  0
  9 10  2  0
 10 11  1  0
 11 12  2  0
 12 13  1  0
 13 14  2  0
  5 15  1  0
 15 16  1  0
 16  2  1  0
 14  9  1  0
M  END
>  <ChemBL_ID>  (672) 
CHEMBL357431

>  <Compound_Key>  (672) 
14

>  <Ki>  (672) 
12.1

>  <database>  (672) 
CHEMBL

>  <Assay_ChEMBL_ID>  (672) 
CHEMBL808278

>  <Document_ChEMBL_ID>  (672) 
CHEMBL1135051

$$$$

     RDKit          2D

 15 16  0  0  0  0  0  0  0  0999 V2000
   -4.3053   -2.3397    0.0000 C   0  0  0  0  0  0  0  0  0  0  0  0
   -3.7128   -0.9616    0.0000 C   0  0  0  0  0  0  0  0  0  0  0  0
   -4.6100    0.2405    0.0000 C   0  0  0  0  0  0  0  0  0  0  0  0
   -4.0175    1.6185    0.0000 C   0  0  0  0  0  0  0  0  0  0  0  0
   -2.5279    1.7944    0.0000 C   0  0  0  0  0  0  0  0  0  0  0  0
   -1.6307    0.5923    0.0000 N   0  0  0  0  0  0  0  0  0  0  0  0
   -0.1411    0.7682    0.0000 C   0  0  0  0  0  0  0  0  0  0  0  0
    0.7561   -0.4339    0.0000 C   0  0  0  0  0  0  0  0  0  0  0  0
    2.2458   -0.2580    0.0000 C   0  0  0  0  0  0  0  0  0  0  0  0
    3.1429   -1.4602    0.0000 C   0  0  0  0  0  0  0  0  0  0  0  0
    4.6326   -1.2843    0.0000 C   0  0  0  0  0  0  0  0  0  0  0  0
    5.2251    0.0938    0.0000 C   0  0  0  0  0  0  0  0  0  0  0  0
    4.3279    1.2959    0.0000 C   0  0  0  0  0  0  0  0  0  0  0  0
    2.8382    1.1200    0.0000 C   0  0  0  0  0  0  0  0  0  0  0  0
   -2.2232   -0.7857    0.0000 C   0  0  0  0  0  0  0  0  0  0  0  0
  1  2  1  0
  2  3  1  0
  3  4  1  0
  4  5  1  0
  5  6  1  0
  6  7  1  0
  7  8  1  0
  8  9  1  0
  9 10  2  0
 10 11  1  0
 11 12  2  0
 12 13  1  0
 13 14  2  0
  6 15  1  0
 15  2  1  0
 14  9  1  0
M  END
>  <ChemBL_ID>  (673) 
CHEMBL144552

>  <Compound_Key>  (673) 
11

>  <Ki>  (673) 
84.4

>  <database>  (673) 
CHEMBL

>  <Assay_ChEMBL_ID>  (673) 
CHEMBL808278

>  <Document_ChEMBL_ID>  (673) 
CHEMBL1135051

$$$$

     RDKit          2D

 15 16  0  0  0  0  0  0  0  0999 V2000
   -5.9649   -0.4354    0.0000 C   0  0  0  0  0  0  0  0  0  0  0  0
   -4.4877   -0.1751    0.0000 C   0  0  0  0  0  0  0  0  0  0  0  0
   -3.9745    1.2343    0.0000 C   0  0  0  0  0  0  0  0  0  0  0  0
   -2.4972    1.4946    0.0000 C   0  0  0  0  0  0  0  0  0  0  0  0
   -1.5332    0.3454    0.0000 N   0  0  0  0  0  0  0  0  0  0  0  0
   -0.0559    0.6057    0.0000 C   0  0  0  0  0  0  0  0  0  0  0  0
    0.9081   -0.5435    0.0000 C   0  0  0  0  0  0  0  0  0  0  0  0
    2.3853   -0.2832    0.0000 C   0  0  0  0  0  0  0  0  0  0  0  0
    3.3494   -1.4324    0.0000 C   0  0  0  0  0  0  0  0  0  0  0  0
    4.8266   -1.1721    0.0000 C   0  0  0  0  0  0  0  0  0  0  0  0
    5.3398    0.2373    0.0000 C   0  0  0  0  0  0  0  0  0  0  0  0
    4.3758    1.3865    0.0000 C   0  0  0  0  0  0  0  0  0  0  0  0
    2.8985    1.1262    0.0000 C   0  0  0  0  0  0  0  0  0  0  0  0
   -2.0464   -1.0640    0.0000 C   0  0  0  0  0  0  0  0  0  0  0  0
   -3.5237   -1.3243    0.0000 C   0  0  0  0  0  0  0  0  0  0  0  0
  1  2  1  0
  2  3  1  0
  3  4  1  0
  4  5  1  0
  5  6  1  0
  6  7  1  0
  7  8  1  0
  8  9  2  0
  9 10  1  0
 10 11  2  0
 11 12  1  0
 12 13  2  0
  5 14  1  0
 14 15  1  0
 15  2  1  0
 13  8  1  0
M  END
>  <ChemBL_ID>  (674) 
CHEMBL343237

>  <Compound_Key>  (674) 
13

>  <Ki>  (674) 
33.3

>  <database>  (674) 
CHEMBL

>  <Assay_ChEMBL_ID>  (674) 
CHEMBL808278

>  <Document_ChEMBL_ID>  (674) 
CHEMBL1135051

$$$$

     RDKit          2D

 23 26  0  0  0  0  0  0  0  0999 V2000
    1.9655   -2.3358    0.0000 O   0  0  0  0  0  0  0  0  0  0  0  0
    2.2068   -0.8553    0.0000 C   0  0  0  0  0  0  0  0  0  0  0  0
    3.6096   -0.3241    0.0000 C   0  0  0  0  0  0  0  0  0  0  0  0
    4.7710   -1.2733    0.0000 C   0  0  0  0  0  0  0  0  0  0  0  0
    6.1738   -0.7421    0.0000 C   0  0  0  0  0  0  0  0  0  0  0  0
    6.4152    0.7384    0.0000 C   0  0  0  0  0  0  0  0  0  0  0  0
    5.2537    1.6876    0.0000 C   0  0  0  0  0  0  0  0  0  0  0  0
    3.8509    1.1564    0.0000 C   0  0  0  0  0  0  0  0  0  0  0  0
    2.6895    2.1056    0.0000 C   0  0  0  0  0  0  0  0  0  0  0  0
    1.2867    1.5744    0.0000 C   0  0  0  0  0  0  0  0  0  0  0  0
    1.0454    0.0939    0.0000 C   0  0  0  0  0  0  0  0  0  0  0  0
   -0.1161    1.0431    0.0000 C   0  0  0  0  0  0  0  0  0  0  0  0
   -1.5189    0.5119    0.0000 C   0  0  0  0  0  0  0  0  0  0  0  0
   -1.7602   -0.9686    0.0000 N   0  0  0  0  0  0  0  0  0  0  0  0
   -3.1630   -1.4998    0.0000 C   0  0  0  0  0  0  0  0  0  0  0  0
   -4.3244   -0.5506    0.0000 C   0  0  0  0  0  0  0  0  0  0  0  0
   -4.0831    0.9299    0.0000 C   0  0  0  0  0  0  0  0  0  0  0  0
   -5.2446    1.8791    0.0000 C   0  0  0  0  0  0  0  0  0  0  0  0
   -6.6473    1.3479    0.0000 C   0  0  0  0  0  0  0  0  0  0  0  0
   -6.8887   -0.1326    0.0000 C   0  0  0  0  0  0  0  0  0  0  0  0
   -5.7272   -1.0818    0.0000 C   0  0  0  0  0  0  0  0  0  0  0  0
   -0.5987   -1.9178    0.0000 C   0  0  0  0  0  0  0  0  0  0  0  0
    0.8040   -1.3866    0.0000 C   0  0  0  0  0  0  0  0  0  0  0  0
  1  2  2  0
  2  3  1  0
  3  4  2  0
  4  5  1  0
  5  6  2  0
  6  7  1  0
  7  8  2  0
  8  9  1  0
  9 10  1  0
 10 11  1  0
 11 12  1  0
 12 13  1  0
 13 14  1  0
 14 15  1  0
 15 16  1  0
 16 17  2  0
 17 18  1  0
 18 19  2  0
 19 20  1  0
 20 21  2  0
 14 22  1  0
 22 23  1  0
 11  2  1  0
 21 16  1  0
  8  3  1  0
 23 11  1  0
M  END
>  <ChemBL_ID>  (675) 
CHEMBL41830

>  <Compound_Key>  (675) 
1

>  <Ki>  (675) 
10.0

>  <database>  (675) 
CHEMBL

>  <Assay_ChEMBL_ID>  (675) 
CHEMBL805217

>  <Document_ChEMBL_ID>  (675) 
CHEMBL1131209

$$$$

     RDKit          2D

 20 21  0  0  0  0  0  0  0  0999 V2000
   -8.7576   -0.7727    0.0000 N   0  0  0  0  0  0  0  0  0  0  0  0
   -7.2872   -0.4761    0.0000 C   0  0  0  0  0  0  0  0  0  0  0  0
   -5.8169   -0.1795    0.0000 C   0  0  0  0  0  0  0  0  0  0  0  0
   -5.3385    1.2422    0.0000 C   0  0  0  0  0  0  0  0  0  0  0  0
   -3.8682    1.5388    0.0000 C   0  0  0  0  0  0  0  0  0  0  0  0
   -2.8761    0.4137    0.0000 C   0  0  0  0  0  0  0  0  0  0  0  0
   -1.4057    0.7103    0.0000 O   0  0  0  0  0  0  0  0  0  0  0  0
   -0.4137   -0.4147    0.0000 C   0  0  0  0  0  0  0  0  0  0  0  0
    1.0567   -0.1181    0.0000 C   0  0  0  0  0  0  0  0  0  0  0  0
    2.0488   -1.2432    0.0000 C   0  0  0  0  0  0  0  0  0  0  0  0
    3.5192   -0.9466    0.0000 C   0  0  0  0  0  0  0  0  0  0  0  0
    3.9975    0.4751    0.0000 N   0  0  0  0  0  0  0  0  0  0  0  0
    5.4679    0.7717    0.0000 C   0  0  0  0  0  0  0  0  0  0  0  0
    6.4599   -0.3534    0.0000 C   0  0  0  0  0  0  0  0  0  0  0  0
    7.9303   -0.0568    0.0000 C   0  0  0  0  0  0  0  0  0  0  0  0
    8.9224   -1.1819    0.0000 I   0  0  0  0  0  0  0  0  0  0  0  0
    3.0054    1.6002    0.0000 C   0  0  0  0  0  0  0  0  0  0  0  0
    1.5351    1.3035    0.0000 C   0  0  0  0  0  0  0  0  0  0  0  0
   -3.3544   -1.0079    0.0000 C   0  0  0  0  0  0  0  0  0  0  0  0
   -4.8248   -1.3045    0.0000 C   0  0  0  0  0  0  0  0  0  0  0  0
  1  2  3  0
  2  3  1  0
  3  4  2  0
  4  5  1  0
  5  6  2  0
  6  7  1  0
  7  8  1  0
  8  9  1  0
  9 10  1  0
 10 11  1  0
 11 12  1  0
 12 13  1  0
 13 14  1  0
 14 15  2  0
 15 16  1  0
 12 17  1  0
 17 18  1  0
  6 19  1  0
 19 20  2  0
 20  3  1  0
 18  9  1  0
M  END
>  <ChemBL_ID>  (676) 
CHEMBL274585

>  <Compound_Key>  (676) 
4

>  <Ki>  (676) 
38.8

>  <database>  (676) 
CHEMBL

>  <Assay_ChEMBL_ID>  (676) 
CHEMBL811510

>  <Document_ChEMBL_ID>  (676) 
CHEMBL1130041

$$$$

     RDKit          2D

 20 21  0  0  0  0  0  0  0  0999 V2000
   -1.0213    2.9826    0.0000 C   0  0  0  0  0  0  0  0  0  0  0  0
   -0.7373    1.5097    0.0000 N   0  0  0  0  0  0  0  0  0  0  0  0
    0.6802    1.0192    0.0000 C   0  0  0  0  0  0  0  0  0  0  0  0
    0.9641   -0.4537    0.0000 C   0  0  0  0  0  0  0  0  0  0  0  0
    2.3817   -0.9442    0.0000 C   0  0  0  0  0  0  0  0  0  0  0  0
    2.6656   -2.4171    0.0000 C   0  0  0  0  0  0  0  0  0  0  0  0
    4.0831   -2.9076    0.0000 C   0  0  0  0  0  0  0  0  0  0  0  0
    5.2167   -1.9253    0.0000 C   0  0  0  0  0  0  0  0  0  0  0  0
    4.9328   -0.4524    0.0000 C   0  0  0  0  0  0  0  0  0  0  0  0
    3.5152    0.0381    0.0000 C   0  0  0  0  0  0  0  0  0  0  0  0
    3.2313    1.5110    0.0000 N   0  0  0  0  0  4  0  0  0  0  0  0
    1.8138    2.0015    0.0000 O   0  0  0  0  0  0  0  0  0  0  0  0
    4.3649    2.4933    0.0000 O   0  0  0  0  0  1  0  0  0  0  0  0
   -1.8709    0.5274    0.0000 C   0  0  0  0  0  0  0  0  0  0  0  0
   -3.2884    1.0179    0.0000 C   0  0  0  0  0  0  0  0  0  0  0  0
   -4.4220    0.0356    0.0000 N   0  0  0  0  0  0  0  0  0  0  0  0
   -4.2936   -1.4589    0.0000 C   0  0  0  0  0  0  0  0  0  0  0  0
   -5.6752   -2.0429    0.0000 C   0  0  0  0  0  0  0  0  0  0  0  0
   -6.6576   -0.9093    0.0000 C   0  0  0  0  0  0  0  0  0  0  0  0
   -5.8830    0.3752    0.0000 C   0  0  0  0  0  0  0  0  0  0  0  0
  1  2  1  0
  2  3  1  0
  3  4  1  0
  4  5  1  0
  5  6  2  0
  6  7  1  0
  7  8  2  0
  8  9  1  0
  9 10  2  0
 10 11  1  0
 11 12  2  0
 11 13  1  0
  2 14  1  0
 14 15  1  0
 15 16  1  0
 16 17  1  0
 17 18  1  0
 18 19  1  0
 19 20  1  0
 10  5  1  0
 20 16  1  0
M  CHG  2  11   1  13  -1
M  END
>  <ChemBL_ID>  (677) 
CHEMBL324513

>  <Compound_Key>  (677) 
13

>  <Ki>  (677) 
311.0

>  <database>  (677) 
CHEMBL

>  <Assay_ChEMBL_ID>  (677) 
CHEMBL808279

>  <Document_ChEMBL_ID>  (677) 
CHEMBL1129631

$$$$

     RDKit          2D

 20 21  0  0  0  0  0  0  0  0999 V2000
   -4.3649   -2.4933    0.0000 C   0  0  0  0  0  0  0  0  0  0  0  0
   -3.2313   -1.5110    0.0000 O   0  0  0  0  0  0  0  0  0  0  0  0
   -3.5152   -0.0381    0.0000 C   0  0  0  0  0  0  0  0  0  0  0  0
   -4.9328    0.4524    0.0000 C   0  0  0  0  0  0  0  0  0  0  0  0
   -5.2167    1.9253    0.0000 C   0  0  0  0  0  0  0  0  0  0  0  0
   -4.0831    2.9076    0.0000 C   0  0  0  0  0  0  0  0  0  0  0  0
   -2.6656    2.4171    0.0000 C   0  0  0  0  0  0  0  0  0  0  0  0
   -2.3817    0.9442    0.0000 C   0  0  0  0  0  0  0  0  0  0  0  0
   -0.9641    0.4537    0.0000 C   0  0  0  0  0  0  0  0  0  0  0  0
   -0.6802   -1.0192    0.0000 C   0  0  0  0  0  0  0  0  0  0  0  0
   -1.8138   -2.0015    0.0000 O   0  0  0  0  0  0  0  0  0  0  0  0
    0.7373   -1.5097    0.0000 N   0  0  0  0  0  0  0  0  0  0  0  0
    1.0213   -2.9826    0.0000 C   0  0  0  0  0  0  0  0  0  0  0  0
    1.8709   -0.5274    0.0000 C   0  0  0  0  0  0  0  0  0  0  0  0
    3.2884   -1.0179    0.0000 C   0  0  0  0  0  0  0  0  0  0  0  0
    4.4220   -0.0356    0.0000 N   0  0  0  0  0  0  0  0  0  0  0  0
    4.2936    1.4589    0.0000 C   0  0  0  0  0  0  0  0  0  0  0  0
    5.6752    2.0429    0.0000 C   0  0  0  0  0  0  0  0  0  0  0  0
    6.6576    0.9093    0.0000 C   0  0  0  0  0  0  0  0  0  0  0  0
    5.8830   -0.3752    0.0000 C   0  0  0  0  0  0  0  0  0  0  0  0
  1  2  1  0
  2  3  1  0
  3  4  2  0
  4  5  1  0
  5  6  2  0
  6  7  1  0
  7  8  2  0
  8  9  1  0
  9 10  1  0
 10 11  2  0
 10 12  1  0
 12 13  1  0
 12 14  1  0
 14 15  1  0
 15 16  1  0
 16 17  1  0
 17 18  1  0
 18 19  1  0
 19 20  1  0
  8  3  1  0
 20 16  1  0
M  END
>  <ChemBL_ID>  (678) 
CHEMBL117051

>  <Compound_Key>  (678) 
4

>  <Ki>  (678) 
3170.0

>  <database>  (678) 
CHEMBL

>  <Assay_ChEMBL_ID>  (678) 
CHEMBL808279

>  <Document_ChEMBL_ID>  (678) 
CHEMBL1129631

$$$$

     RDKit          2D

 18 19  0  0  0  0  0  0  0  0999 V2000
   -1.3301    3.2998    0.0000 C   0  0  0  0  0  0  0  0  0  0  0  0
   -0.8477    1.8794    0.0000 N   0  0  0  0  0  0  0  0  0  0  0  0
    0.6235    1.5871    0.0000 C   0  0  0  0  0  0  0  0  0  0  0  0
    1.1059    0.1667    0.0000 C   0  0  0  0  0  0  0  0  0  0  0  0
    2.5772   -0.1256    0.0000 C   0  0  0  0  0  0  0  0  0  0  0  0
    3.0596   -1.5460    0.0000 C   0  0  0  0  0  0  0  0  0  0  0  0
    4.5308   -1.8383    0.0000 C   0  0  0  0  0  0  0  0  0  0  0  0
    5.5196   -0.7104    0.0000 C   0  0  0  0  0  0  0  0  0  0  0  0
    6.9908   -1.0028    0.0000 N   0  0  0  0  0  0  0  0  0  0  0  0
    5.0372    0.7099    0.0000 C   0  0  0  0  0  0  0  0  0  0  0  0
    3.5660    1.0023    0.0000 C   0  0  0  0  0  0  0  0  0  0  0  0
   -1.8365    0.7515    0.0000 C   0  0  0  0  0  0  0  0  0  0  0  0
   -3.3077    1.0439    0.0000 C   0  0  0  0  0  0  0  0  0  0  0  0
   -4.2966   -0.0840    0.0000 N   0  0  0  0  0  0  0  0  0  0  0  0
   -3.9653   -1.5470    0.0000 C   0  0  0  0  0  0  0  0  0  0  0  0
   -5.2543   -2.3141    0.0000 C   0  0  0  0  0  0  0  0  0  0  0  0
   -6.3822   -1.3253    0.0000 C   0  0  0  0  0  0  0  0  0  0  0  0
   -5.7903    0.0530    0.0000 C   0  0  0  0  0  0  0  0  0  0  0  0
  1  2  1  0
  2  3  1  0
  3  4  1  0
  4  5  1  0
  5  6  2  0
  6  7  1  0
  7  8  2  0
  8  9  1  0
  8 10  1  0
 10 11  2  0
  2 12  1  0
 12 13  1  0
 13 14  1  0
 14 15  1  0
 15 16  1  0
 16 17  1  0
 17 18  1  0
 11  5  1  0
 18 14  1  0
M  END
>  <ChemBL_ID>  (679) 
CHEMBL119481

>  <Compound_Key>  (679) 
18

>  <Ki>  (679) 
974.0

>  <database>  (679) 
CHEMBL

>  <Assay_ChEMBL_ID>  (679) 
CHEMBL808279

>  <Document_ChEMBL_ID>  (679) 
CHEMBL1129631

$$$$

     RDKit          2D

 28 31  0  0  0  0  0  0  0  0999 V2000
   -9.4412   -0.7941    0.0000 C   0  0  0  0  0  0  0  0  0  0  0  0
   -8.0048   -1.2261    0.0000 O   0  0  0  0  0  0  0  0  0  0  0  0
   -6.9124   -0.1981    0.0000 C   0  0  0  0  0  0  0  0  0  0  0  0
   -7.2565    1.2619    0.0000 C   0  0  0  0  0  0  0  0  0  0  0  0
   -6.1642    2.2899    0.0000 C   0  0  0  0  0  0  0  0  0  0  0  0
   -4.7277    1.8579    0.0000 C   0  0  0  0  0  0  0  0  0  0  0  0
   -4.3836    0.3979    0.0000 C   0  0  0  0  0  0  0  0  0  0  0  0
   -5.4760   -0.6301    0.0000 C   0  0  0  0  0  0  0  0  0  0  0  0
   -5.1319   -2.0901    0.0000 C   0  0  0  0  0  0  0  0  0  0  0  0
   -3.6955   -2.5221    0.0000 C   0  0  0  0  0  0  0  0  0  0  0  0
   -2.6031   -1.4941    0.0000 C   0  0  0  0  0  0  0  0  0  0  0  0
   -2.9472   -0.0341    0.0000 C   0  0  0  0  0  0  0  0  0  0  0  0
   -1.8549    0.9939    0.0000 N   0  0  0  0  0  0  0  0  0  0  0  0
   -0.4184    0.5619    0.0000 C   0  0  0  0  0  0  0  0  0  0  0  0
   -0.0743   -0.8981    0.0000 O   0  0  0  0  0  0  0  0  0  0  0  0
    0.6739    1.5899    0.0000 C   0  0  0  0  0  0  0  0  0  0  0  0
    2.1104    1.1579    0.0000 N   0  0  0  0  0  0  0  0  0  0  0  0
    2.4545   -0.3021    0.0000 C   0  0  0  0  0  0  0  0  0  0  0  0
    3.8909   -0.7342    0.0000 C   0  0  0  0  0  0  0  0  0  0  0  0
    4.9833    0.2938    0.0000 N   0  0  0  0  0  0  0  0  0  0  0  0
    6.4197   -0.1382    0.0000 C   0  0  0  0  0  0  0  0  0  0  0  0
    6.7638   -1.5982    0.0000 C   0  0  0  0  0  0  0  0  0  0  0  0
    8.2003   -2.0302    0.0000 C   0  0  0  0  0  0  0  0  0  0  0  0
    9.2926   -1.0022    0.0000 C   0  0  0  0  0  0  0  0  0  0  0  0
    8.9485    0.4578    0.0000 C   0  0  0  0  0  0  0  0  0  0  0  0
    7.5121    0.8898    0.0000 C   0  0  0  0  0  0  0  0  0  0  0  0
    4.6392    1.7538    0.0000 C   0  0  0  0  0  0  0  0  0  0  0  0
    3.2027    2.1858    0.0000 C   0  0  0  0  0  0  0  0  0  0  0  0
  1  2  1  0
  2  3  1  0
  3  4  2  0
  4  5  1  0
  5  6  2  0
  6  7  1  0
  7  8  2  0
  8  9  1  0
  9 10  1  0
 10 11  1  0
 11 12  1  0
 12 13  1  6
 13 14  1  0
 14 15  2  0
 14 16  1  0
 16 17  1  0
 17 18  1  0
 18 19  1  0
 19 20  1  0
 20 21  1  0
 21 22  1  0
 22 23  1  0
 23 24  1  0
 24 25  1  0
 25 26  1  0
 20 27  1  0
 27 28  1  0
  8  3  1  0
 28 17  1  0
 12  7  1  0
 26 21  1  0
M  END
>  <ChemBL_ID>  (680) 
CHEMBL1672031

>  <Ki>  (680) 
10.1

>  <database>  (680) 
SRSLDB

$$$$

     RDKit          2D

 18 19  0  0  0  0  0  0  0  0999 V2000
   -1.0520    3.2241    0.0000 C   0  0  0  0  0  0  0  0  0  0  0  0
   -0.6708    1.7733    0.0000 N   0  0  0  0  0  0  0  0  0  0  0  0
    0.7761    1.3780    0.0000 C   0  0  0  0  0  0  0  0  0  0  0  0
    1.1573   -0.0728    0.0000 C   0  0  0  0  0  0  0  0  0  0  0  0
    2.6043   -0.4681    0.0000 C   0  0  0  0  0  0  0  0  0  0  0  0
    2.9854   -1.9189    0.0000 C   0  0  0  0  0  0  0  0  0  0  0  0
    4.4324   -2.3142    0.0000 C   0  0  0  0  0  0  0  0  0  0  0  0
    5.4982   -1.2587    0.0000 C   0  0  0  0  0  0  0  0  0  0  0  0
    5.1171    0.1921    0.0000 C   0  0  0  0  0  0  0  0  0  0  0  0
    6.1829    1.2475    0.0000 N   0  0  0  0  0  0  0  0  0  0  0  0
    3.6701    0.5874    0.0000 C   0  0  0  0  0  0  0  0  0  0  0  0
   -1.7367    0.7178    0.0000 C   0  0  0  0  0  0  0  0  0  0  0  0
   -3.1836    1.1131    0.0000 C   0  0  0  0  0  0  0  0  0  0  0  0
   -4.2495    0.0577    0.0000 N   0  0  0  0  0  0  0  0  0  0  0  0
   -4.0221   -1.4250    0.0000 C   0  0  0  0  0  0  0  0  0  0  0  0
   -5.3619   -2.0994    0.0000 C   0  0  0  0  0  0  0  0  0  0  0  0
   -6.4173   -1.0336    0.0000 C   0  0  0  0  0  0  0  0  0  0  0  0
   -5.7298    0.2996    0.0000 C   0  0  0  0  0  0  0  0  0  0  0  0
  1  2  1  0
  2  3  1  0
  3  4  1  0
  4  5  1  0
  5  6  2  0
  6  7  1  0
  7  8  2  0
  8  9  1  0
  9 10  1  0
  9 11  2  0
  2 12  1  0
 12 13  1  0
 13 14  1  0
 14 15  1  0
 15 16  1  0
 16 17  1  0
 17 18  1  0
 11  5  1  0
 18 14  1  0
M  END
>  <ChemBL_ID>  (681) 
CHEMBL118160

>  <Compound_Key>  (681) 
17

>  <Ki>  (681) 
2240.0

>  <database>  (681) 
CHEMBL

>  <Assay_ChEMBL_ID>  (681) 
CHEMBL808279

>  <Document_ChEMBL_ID>  (681) 
CHEMBL1129631

$$$$

     RDKit          2D

 28 31  0  0  0  0  0  0  0  0999 V2000
   -9.8120    0.3777    0.0000 C   0  0  0  0  0  0  0  0  0  0  0  0
   -8.4781   -0.3083    0.0000 N   0  0  0  0  0  0  0  0  0  0  0  0
   -8.2491   -1.7907    0.0000 C   0  0  0  0  0  0  0  0  0  0  0  0
   -9.3138   -2.8474    0.0000 O   0  0  0  0  0  0  0  0  0  0  0  0
   -6.7684   -2.0310    0.0000 S   0  0  0  0  0  0  0  0  0  0  0  0
   -6.0824   -0.6971    0.0000 C   0  0  0  0  0  0  0  0  0  0  0  0
   -4.6320   -0.3144    0.0000 C   0  0  0  0  0  0  0  0  0  0  0  0
   -4.2383    1.1330    0.0000 C   0  0  0  0  0  0  0  0  0  0  0  0
   -2.7879    1.5157    0.0000 C   0  0  0  0  0  0  0  0  0  0  0  0
   -1.7313    0.4510    0.0000 C   0  0  0  0  0  0  0  0  0  0  0  0
   -0.2809    0.8337    0.0000 C   0  0  0  0  0  0  0  0  0  0  0  0
    0.7757   -0.2310    0.0000 C   0  0  0  0  0  0  0  0  0  0  0  0
    2.2260    0.1517    0.0000 N   0  0  0  0  0  0  0  0  0  0  0  0
    3.2826   -0.9130    0.0000 C   0  0  0  0  0  0  0  0  0  0  0  0
    4.7330   -0.5303    0.0000 C   0  0  0  0  0  0  0  0  0  0  0  0
    5.1268    0.9171    0.0000 N   0  0  0  0  0  0  0  0  0  0  0  0
    6.5771    1.2998    0.0000 C   0  0  0  0  0  0  0  0  0  0  0  0
    7.6337    0.2351    0.0000 C   0  0  0  0  0  0  0  0  0  0  0  0
    7.2400   -1.2123    0.0000 C   0  0  0  0  0  0  0  0  0  0  0  0
    8.2966   -2.2770    0.0000 C   0  0  0  0  0  0  0  0  0  0  0  0
    9.7469   -1.8943    0.0000 C   0  0  0  0  0  0  0  0  0  0  0  0
   10.1407   -0.4469    0.0000 C   0  0  0  0  0  0  0  0  0  0  0  0
    9.0841    0.6178    0.0000 C   0  0  0  0  0  0  0  0  0  0  0  0
    4.0701    1.9818    0.0000 C   0  0  0  0  0  0  0  0  0  0  0  0
    2.6198    1.5991    0.0000 C   0  0  0  0  0  0  0  0  0  0  0  0
   -5.2949    2.1977    0.0000 C   0  0  0  0  0  0  0  0  0  0  0  0
   -6.7452    1.8150    0.0000 C   0  0  0  0  0  0  0  0  0  0  0  0
   -7.1390    0.3676    0.0000 C   0  0  0  0  0  0  0  0  0  0  0  0
  1  2  1  0
  2  3  1  0
  3  4  2  0
  3  5  1  0
  5  6  1  0
  6  7  2  0
  7  8  1  0
  8  9  1  0
  9 10  1  0
 10 11  1  0
 11 12  1  0
 12 13  1  0
 13 14  1  0
 14 15  1  0
 15 16  1  0
 16 17  1  0
 17 18  1  0
 18 19  2  0
 19 20  1  0
 20 21  2  0
 21 22  1  0
 22 23  2  0
 16 24  1  0
 24 25  1  0
  8 26  2  0
 26 27  1  0
 27 28  2  0
 28  2  1  0
 28  6  1  0
 25 13  1  0
 23 18  1  0
M  END
>  <ChemBL_ID>  (682) 
CHEMBL15941

>  <Compound_Key>  (682) 
11

>  <Ki>  (682) 
2.0

>  <database>  (682) 
CHEMBL

>  <Assay_ChEMBL_ID>  (682) 
CHEMBL808286

>  <Document_ChEMBL_ID>  (682) 
CHEMBL1135280

$$$$

     RDKit          2D

 21 22  0  0  0  0  0  0  0  0999 V2000
   -2.2581    3.2015    0.0000 C   0  0  0  0  0  0  0  0  0  0  0  0
   -1.7255    1.7993    0.0000 N   0  0  0  0  0  0  0  0  0  0  0  0
   -2.6735    0.6369    0.0000 C   0  0  0  0  0  0  0  0  0  0  0  0
   -4.1542    0.8767    0.0000 C   0  0  0  0  0  0  0  0  0  0  0  0
   -5.1023   -0.2857    0.0000 N   0  0  0  0  0  0  0  0  0  0  0  0
   -4.7191   -1.7359    0.0000 C   0  0  0  0  0  0  0  0  0  0  0  0
   -5.9800   -2.5485    0.0000 C   0  0  0  0  0  0  0  0  0  0  0  0
   -7.1424   -1.6004    0.0000 C   0  0  0  0  0  0  0  0  0  0  0  0
   -6.5999   -0.2020    0.0000 C   0  0  0  0  0  0  0  0  0  0  0  0
   -0.2448    1.5595    0.0000 C   0  0  0  0  0  0  0  0  0  0  0  0
    0.7033    2.7219    0.0000 O   0  0  0  0  0  0  0  0  0  0  0  0
    0.2879    0.1572    0.0000 C   0  0  0  0  0  0  0  0  0  0  0  0
    1.7686   -0.0826    0.0000 C   0  0  0  0  0  0  0  0  0  0  0  0
    2.3012   -1.4848    0.0000 C   0  0  0  0  0  0  0  0  0  0  0  0
    3.7819   -1.7247    0.0000 C   0  0  0  0  0  0  0  0  0  0  0  0
    4.7300   -0.5622    0.0000 C   0  0  0  0  0  0  0  0  0  0  0  0
    6.2107   -0.8021    0.0000 N   0  0  0  0  0  4  0  0  0  0  0  0
    7.1588    0.3603    0.0000 O   0  0  0  0  0  0  0  0  0  0  0  0
    6.7434   -2.2043    0.0000 O   0  0  0  0  0  1  0  0  0  0  0  0
    4.1973    0.8400    0.0000 C   0  0  0  0  0  0  0  0  0  0  0  0
    2.7166    1.0798    0.0000 C   0  0  0  0  0  0  0  0  0  0  0  0
  1  2  1  0
  2  3  1  0
  3  4  1  0
  4  5  1  0
  5  6  1  0
  6  7  1  0
  7  8  1  0
  8  9  1  0
  2 10  1  0
 10 11  2  0
 10 12  1  0
 12 13  1  0
 13 14  2  0
 14 15  1  0
 15 16  2  0
 16 17  1  0
 17 18  2  0
 17 19  1  0
 16 20  1  0
 20 21  2  0
  9  5  1  0
 21 13  1  0
M  CHG  2  17   1  19  -1
M  END
>  <ChemBL_ID>  (683) 
CHEMBL116773

>  <Compound_Key>  (683) 
9

>  <Ki>  (683) 
596.0

>  <database>  (683) 
CHEMBL

>  <Assay_ChEMBL_ID>  (683) 
CHEMBL808279

>  <Document_ChEMBL_ID>  (683) 
CHEMBL1129631

$$$$

     RDKit          2D

 20 21  0  0  0  0  0  0  0  0999 V2000
   -1.5417    3.1425    0.0000 C   0  0  0  0  0  0  0  0  0  0  0  0
   -1.2464    1.6718    0.0000 N   0  0  0  0  0  0  0  0  0  0  0  0
    0.1749    1.1923    0.0000 C   0  0  0  0  0  0  0  0  0  0  0  0
    0.4702   -0.2784    0.0000 C   0  0  0  0  0  0  0  0  0  0  0  0
    1.8914   -0.7580    0.0000 C   0  0  0  0  0  0  0  0  0  0  0  0
    2.1867   -2.2286    0.0000 C   0  0  0  0  0  0  0  0  0  0  0  0
    3.6080   -2.7082    0.0000 C   0  0  0  0  0  0  0  0  0  0  0  0
    4.7340   -1.7171    0.0000 C   0  0  0  0  0  0  0  0  0  0  0  0
    4.4387   -0.2465    0.0000 C   0  0  0  0  0  0  0  0  0  0  0  0
    5.5646    0.7446    0.0000 N   0  0  0  0  0  4  0  0  0  0  0  0
    5.2693    2.2152    0.0000 O   0  0  0  0  0  0  0  0  0  0  0  0
    6.9859    0.2650    0.0000 O   0  0  0  0  0  1  0  0  0  0  0  0
    3.0174    0.2331    0.0000 C   0  0  0  0  0  0  0  0  0  0  0  0
   -2.3724    0.6808    0.0000 C   0  0  0  0  0  0  0  0  0  0  0  0
   -3.7936    1.1604    0.0000 C   0  0  0  0  0  0  0  0  0  0  0  0
   -4.9196    0.1693    0.0000 N   0  0  0  0  0  0  0  0  0  0  0  0
   -4.7796   -1.3241    0.0000 C   0  0  0  0  0  0  0  0  0  0  0  0
   -6.1568   -1.9188    0.0000 C   0  0  0  0  0  0  0  0  0  0  0  0
   -7.1478   -0.7928    0.0000 C   0  0  0  0  0  0  0  0  0  0  0  0
   -6.3832    0.4977    0.0000 C   0  0  0  0  0  0  0  0  0  0  0  0
  1  2  1  0
  2  3  1  0
  3  4  1  0
  4  5  1  0
  5  6  2  0
  6  7  1  0
  7  8  2  0
  8  9  1  0
  9 10  1  0
 10 11  2  0
 10 12  1  0
  9 13  2  0
  2 14  1  0
 14 15  1  0
 15 16  1  0
 16 17  1  0
 17 18  1  0
 18 19  1  0
 19 20  1  0
 13  5  1  0
 20 16  1  0
M  CHG  2  10   1  12  -1
M  END
>  <ChemBL_ID>  (684) 
CHEMBL118405

>  <Compound_Key>  (684) 
14

>  <Ki>  (684) 
95.2

>  <database>  (684) 
CHEMBL

>  <Assay_ChEMBL_ID>  (684) 
CHEMBL808279

>  <Document_ChEMBL_ID>  (684) 
CHEMBL1129631

$$$$

     RDKit          2D

 20 21  0  0  0  0  0  0  0  0999 V2000
   -2.2408    3.3257    0.0000 C   0  0  0  0  0  0  0  0  0  0  0  0
   -1.7007    1.9263    0.0000 N   0  0  0  0  0  0  0  0  0  0  0  0
   -0.2187    1.6944    0.0000 C   0  0  0  0  0  0  0  0  0  0  0  0
    0.3215    0.2951    0.0000 C   0  0  0  0  0  0  0  0  0  0  0  0
    1.8034    0.0632    0.0000 C   0  0  0  0  0  0  0  0  0  0  0  0
    2.3436   -1.3362    0.0000 C   0  0  0  0  0  0  0  0  0  0  0  0
    3.8256   -1.5681    0.0000 C   0  0  0  0  0  0  0  0  0  0  0  0
    4.7674   -0.4006    0.0000 C   0  0  0  0  0  0  0  0  0  0  0  0
    6.2493   -0.6325    0.0000 N   0  0  0  0  0  4  0  0  0  0  0  0
    7.1911    0.5350    0.0000 O   0  0  0  0  0  0  0  0  0  0  0  0
    6.7895   -2.0318    0.0000 O   0  0  0  0  0  1  0  0  0  0  0  0
    4.2272    0.9988    0.0000 C   0  0  0  0  0  0  0  0  0  0  0  0
    2.7452    1.2307    0.0000 C   0  0  0  0  0  0  0  0  0  0  0  0
   -2.6425    0.7588    0.0000 C   0  0  0  0  0  0  0  0  0  0  0  0
   -4.1244    0.9907    0.0000 C   0  0  0  0  0  0  0  0  0  0  0  0
   -5.0662   -0.1768    0.0000 N   0  0  0  0  0  0  0  0  0  0  0  0
   -4.6753   -1.6249    0.0000 C   0  0  0  0  0  0  0  0  0  0  0  0
   -5.9318   -2.4442    0.0000 C   0  0  0  0  0  0  0  0  0  0  0  0
   -7.0993   -1.5024    0.0000 C   0  0  0  0  0  0  0  0  0  0  0  0
   -6.5643   -0.1011    0.0000 C   0  0  0  0  0  0  0  0  0  0  0  0
  1  2  1  0
  2  3  1  0
  3  4  1  0
  4  5  1  0
  5  6  2  0
  6  7  1  0
  7  8  2  0
  8  9  1  0
  9 10  2  0
  9 11  1  0
  8 12  1  0
 12 13  2  0
  2 14  1  0
 14 15  1  0
 15 16  1  0
 16 17  1  0
 17 18  1  0
 18 19  1  0
 19 20  1  0
 13  5  1  0
 20 16  1  0
M  CHG  2   9   1  11  -1
M  END
>  <ChemBL_ID>  (685) 
CHEMBL118797

>  <Compound_Key>  (685) 
15

>  <Ki>  (685) 
62.7

>  <database>  (685) 
CHEMBL

>  <Assay_ChEMBL_ID>  (685) 
CHEMBL808279

>  <Document_ChEMBL_ID>  (685) 
CHEMBL1129631

$$$$

     RDKit          2D

 19 20  0  0  0  0  0  0  0  0999 V2000
    7.1927   -1.9130    0.0000 C   0  0  0  0  0  0  0  0  0  0  0  0
    6.6349   -0.5205    0.0000 O   0  0  0  0  0  0  0  0  0  0  0  0
    5.1502   -0.3074    0.0000 C   0  0  0  0  0  0  0  0  0  0  0  0
    4.2232   -1.4867    0.0000 C   0  0  0  0  0  0  0  0  0  0  0  0
    2.7384   -1.2735    0.0000 C   0  0  0  0  0  0  0  0  0  0  0  0
    2.1806    0.1189    0.0000 C   0  0  0  0  0  0  0  0  0  0  0  0
    0.6958    0.3320    0.0000 C   0  0  0  0  0  0  0  0  0  0  0  0
    0.1380    1.7245    0.0000 C   0  0  0  0  0  0  0  0  0  0  0  0
   -1.3468    1.9376    0.0000 N   0  0  0  0  0  0  0  0  0  0  0  0
   -1.9046    3.3300    0.0000 C   0  0  0  0  0  0  0  0  0  0  0  0
   -2.2737    0.7583    0.0000 C   0  0  0  0  0  0  0  0  0  0  0  0
   -3.7585    0.9715    0.0000 C   0  0  0  0  0  0  0  0  0  0  0  0
   -4.6855   -0.2078    0.0000 N   0  0  0  0  0  0  0  0  0  0  0  0
   -4.2763   -1.6509    0.0000 C   0  0  0  0  0  0  0  0  0  0  0  0
   -5.5223   -2.4860    0.0000 C   0  0  0  0  0  0  0  0  0  0  0  0
   -6.7016   -1.5591    0.0000 C   0  0  0  0  0  0  0  0  0  0  0  0
   -6.1844   -0.1510    0.0000 C   0  0  0  0  0  0  0  0  0  0  0  0
    3.1076    1.2982    0.0000 C   0  0  0  0  0  0  0  0  0  0  0  0
    4.5924    1.0850    0.0000 C   0  0  0  0  0  0  0  0  0  0  0  0
  1  2  1  0
  2  3  1  0
  3  4  2  0
  4  5  1  0
  5  6  2  0
  6  7  1  0
  7  8  1  0
  8  9  1  0
  9 10  1  0
  9 11  1  0
 11 12  1  0
 12 13  1  0
 13 14  1  0
 14 15  1  0
 15 16  1  0
 16 17  1  0
  6 18  1  0
 18 19  2  0
 19  3  1  0
 17 13  1  0
M  END
>  <ChemBL_ID>  (686) 
CHEMBL118297

>  <Compound_Key>  (686) 
12

>  <Ki>  (686) 
256.0

>  <database>  (686) 
CHEMBL

>  <Assay_ChEMBL_ID>  (686) 
CHEMBL808279

>  <Document_ChEMBL_ID>  (686) 
CHEMBL1129631

$$$$

     RDKit          2D

 20 21  0  0  0  0  0  0  0  0999 V2000
   -7.1738   -0.4707    0.0000 C   0  0  0  0  0  0  0  0  0  0  0  0
   -5.7395   -0.9096    0.0000 O   0  0  0  0  0  0  0  0  0  0  0  0
   -4.6422    0.1130    0.0000 C   0  0  0  0  0  0  0  0  0  0  0  0
   -4.9792    1.5747    0.0000 C   0  0  0  0  0  0  0  0  0  0  0  0
   -3.8818    2.5973    0.0000 C   0  0  0  0  0  0  0  0  0  0  0  0
   -2.4475    2.1583    0.0000 C   0  0  0  0  0  0  0  0  0  0  0  0
   -2.1105    0.6967    0.0000 C   0  0  0  0  0  0  0  0  0  0  0  0
   -0.6762    0.2577    0.0000 C   0  0  0  0  0  0  0  0  0  0  0  0
   -0.3392   -1.2040    0.0000 C   0  0  0  0  0  0  0  0  0  0  0  0
   -1.4366   -2.2266    0.0000 O   0  0  0  0  0  0  0  0  0  0  0  0
    1.0951   -1.6430    0.0000 N   0  0  0  0  0  0  0  0  0  0  0  0
    1.4321   -3.1046    0.0000 C   0  0  0  0  0  0  0  0  0  0  0  0
    2.1925   -0.6203    0.0000 C   0  0  0  0  0  0  0  0  0  0  0  0
    3.6268   -1.0593    0.0000 C   0  0  0  0  0  0  0  0  0  0  0  0
    4.7241   -0.0366    0.0000 N   0  0  0  0  0  0  0  0  0  0  0  0
    4.5418    1.4522    0.0000 C   0  0  0  0  0  0  0  0  0  0  0  0
    5.9014    2.0857    0.0000 C   0  0  0  0  0  0  0  0  0  0  0  0
    6.9241    0.9884    0.0000 C   0  0  0  0  0  0  0  0  0  0  0  0
    6.1965   -0.3233    0.0000 C   0  0  0  0  0  0  0  0  0  0  0  0
   -3.2079   -0.3260    0.0000 C   0  0  0  0  0  0  0  0  0  0  0  0
  1  2  1  0
  2  3  1  0
  3  4  2  0
  4  5  1  0
  5  6  2  0
  6  7  1  0
  7  8  1  0
  8  9  1  0
  9 10  2  0
  9 11  1  0
 11 12  1  0
 11 13  1  0
 13 14  1  0
 14 15  1  0
 15 16  1  0
 16 17  1  0
 17 18  1  0
 18 19  1  0
  7 20  2  0
 20  3  1  0
 19 15  1  0
M  END
>  <ChemBL_ID>  (687) 
CHEMBL117050

>  <Compound_Key>  (687) 
5

>  <Ki>  (687) 
1110.0

>  <database>  (687) 
CHEMBL

>  <Assay_ChEMBL_ID>  (687) 
CHEMBL808279

>  <Document_ChEMBL_ID>  (687) 
CHEMBL1129631

$$$$

     RDKit          2D

 20 21  0  0  0  0  0  0  0  0999 V2000
    7.1199   -2.1249    0.0000 C   0  0  0  0  0  0  0  0  0  0  0  0
    6.5752   -0.7273    0.0000 O   0  0  0  0  0  0  0  0  0  0  0  0
    5.0924   -0.5003    0.0000 C   0  0  0  0  0  0  0  0  0  0  0  0
    4.1545   -1.6708    0.0000 C   0  0  0  0  0  0  0  0  0  0  0  0
    2.6717   -1.4438    0.0000 C   0  0  0  0  0  0  0  0  0  0  0  0
    2.1270   -0.0462    0.0000 C   0  0  0  0  0  0  0  0  0  0  0  0
    0.6443    0.1808    0.0000 C   0  0  0  0  0  0  0  0  0  0  0  0
    0.0996    1.5784    0.0000 C   0  0  0  0  0  0  0  0  0  0  0  0
    1.0375    2.7490    0.0000 O   0  0  0  0  0  0  0  0  0  0  0  0
   -1.3832    1.8055    0.0000 N   0  0  0  0  0  0  0  0  0  0  0  0
   -1.9279    3.2030    0.0000 C   0  0  0  0  0  0  0  0  0  0  0  0
   -2.3211    0.6349    0.0000 C   0  0  0  0  0  0  0  0  0  0  0  0
   -3.8039    0.8619    0.0000 C   0  0  0  0  0  0  0  0  0  0  0  0
   -4.7418   -0.3086    0.0000 N   0  0  0  0  0  0  0  0  0  0  0  0
   -4.3462   -1.7555    0.0000 C   0  0  0  0  0  0  0  0  0  0  0  0
   -5.6000   -2.5789    0.0000 C   0  0  0  0  0  0  0  0  0  0  0  0
   -6.7705   -1.6409    0.0000 C   0  0  0  0  0  0  0  0  0  0  0  0
   -6.2402   -0.2378    0.0000 C   0  0  0  0  0  0  0  0  0  0  0  0
    3.0650    1.1243    0.0000 C   0  0  0  0  0  0  0  0  0  0  0  0
    4.5477    0.8973    0.0000 C   0  0  0  0  0  0  0  0  0  0  0  0
  1  2  1  0
  2  3  1  0
  3  4  2  0
  4  5  1  0
  5  6  2  0
  6  7  1  0
  7  8  1  0
  8  9  2  0
  8 10  1  0
 10 11  1  0
 10 12  1  0
 12 13  1  0
 13 14  1  0
 14 15  1  0
 15 16  1  0
 16 17  1  0
 17 18  1  0
  6 19  1  0
 19 20  2  0
 20  3  1  0
 18 14  1  0
M  END
>  <ChemBL_ID>  (688) 
CHEMBL119458

>  <Compound_Key>  (688) 
6

>  <Ki>  (688) 
1220.0

>  <database>  (688) 
CHEMBL

>  <Assay_ChEMBL_ID>  (688) 
CHEMBL808279

>  <Document_ChEMBL_ID>  (688) 
CHEMBL1129631

$$$$

     RDKit          2D

 21 22  0  0  0  0  0  0  0  0999 V2000
   -1.4290    3.5171    0.0000 C   0  0  0  0  0  0  0  0  0  0  0  0
   -0.9041    2.1119    0.0000 N   0  0  0  0  0  0  0  0  0  0  0  0
   -1.8586    0.9548    0.0000 C   0  0  0  0  0  0  0  0  0  0  0  0
   -3.3380    1.2029    0.0000 C   0  0  0  0  0  0  0  0  0  0  0  0
   -4.2925    0.0457    0.0000 N   0  0  0  0  0  0  0  0  0  0  0  0
   -3.9174   -1.4066    0.0000 C   0  0  0  0  0  0  0  0  0  0  0  0
   -5.1828   -2.2121    0.0000 C   0  0  0  0  0  0  0  0  0  0  0  0
   -6.3399   -1.2576    0.0000 C   0  0  0  0  0  0  0  0  0  0  0  0
   -5.7897    0.1378    0.0000 C   0  0  0  0  0  0  0  0  0  0  0  0
    0.5752    1.8638    0.0000 C   0  0  0  0  0  0  0  0  0  0  0  0
    1.5297    3.0209    0.0000 O   0  0  0  0  0  0  0  0  0  0  0  0
    1.1000    0.4586    0.0000 C   0  0  0  0  0  0  0  0  0  0  0  0
    2.5794    0.2106    0.0000 C   0  0  0  0  0  0  0  0  0  0  0  0
    3.5339    1.3677    0.0000 C   0  0  0  0  0  0  0  0  0  0  0  0
    5.0132    1.1196    0.0000 C   0  0  0  0  0  0  0  0  0  0  0  0
    5.5381   -0.2856    0.0000 C   0  0  0  0  0  0  0  0  0  0  0  0
    4.5836   -1.4427    0.0000 C   0  0  0  0  0  0  0  0  0  0  0  0
    3.1042   -1.1946    0.0000 C   0  0  0  0  0  0  0  0  0  0  0  0
    2.1497   -2.3517    0.0000 N   0  0  0  0  0  4  0  0  0  0  0  0
    0.6704   -2.1037    0.0000 O   0  0  0  0  0  0  0  0  0  0  0  0
    2.6746   -3.7569    0.0000 O   0  0  0  0  0  1  0  0  0  0  0  0
  1  2  1  0
  2  3  1  0
  3  4  1  0
  4  5  1  0
  5  6  1  0
  6  7  1  0
  7  8  1  0
  8  9  1  0
  2 10  1  0
 10 11  2  0
 10 12  1  0
 12 13  1  0
 13 14  2  0
 14 15  1  0
 15 16  2  0
 16 17  1  0
 17 18  2  0
 18 19  1  0
 19 20  2  0
 19 21  1  0
  9  5  1  0
 18 13  1  0
M  CHG  2  19   1  21  -1
M  END
>  <ChemBL_ID>  (689) 
CHEMBL119310

>  <Compound_Key>  (689) 
7

>  <Ki>  (689) 
1490.0

>  <database>  (689) 
CHEMBL

>  <Assay_ChEMBL_ID>  (689) 
CHEMBL808279

>  <Document_ChEMBL_ID>  (689) 
CHEMBL1129631

$$$$

     RDKit          2D

 18 19  0  0  0  0  0  0  0  0999 V2000
   -0.9034    3.1767    0.0000 C   0  0  0  0  0  0  0  0  0  0  0  0
   -0.5167    1.7274    0.0000 N   0  0  0  0  0  0  0  0  0  0  0  0
    0.9318    1.3377    0.0000 C   0  0  0  0  0  0  0  0  0  0  0  0
    1.3185   -0.1116    0.0000 C   0  0  0  0  0  0  0  0  0  0  0  0
    2.7670   -0.5013    0.0000 C   0  0  0  0  0  0  0  0  0  0  0  0
    3.1537   -1.9506    0.0000 C   0  0  0  0  0  0  0  0  0  0  0  0
    4.6022   -2.3404    0.0000 C   0  0  0  0  0  0  0  0  0  0  0  0
    5.6640   -1.2808    0.0000 C   0  0  0  0  0  0  0  0  0  0  0  0
    5.2772    0.1685    0.0000 C   0  0  0  0  0  0  0  0  0  0  0  0
    3.8287    0.5582    0.0000 C   0  0  0  0  0  0  0  0  0  0  0  0
    3.4420    2.0075    0.0000 N   0  0  0  0  0  0  0  0  0  0  0  0
   -1.5785    0.6678    0.0000 C   0  0  0  0  0  0  0  0  0  0  0  0
   -3.0270    1.0576    0.0000 C   0  0  0  0  0  0  0  0  0  0  0  0
   -4.0887   -0.0020    0.0000 N   0  0  0  0  0  0  0  0  0  0  0  0
   -3.8556   -1.4838    0.0000 C   0  0  0  0  0  0  0  0  0  0  0  0
   -5.1928   -2.1634    0.0000 C   0  0  0  0  0  0  0  0  0  0  0  0
   -6.2524   -1.1016    0.0000 C   0  0  0  0  0  0  0  0  0  0  0  0
   -5.5700    0.2342    0.0000 C   0  0  0  0  0  0  0  0  0  0  0  0
  1  2  1  0
  2  3  1  0
  3  4  1  0
  4  5  1  0
  5  6  2  0
  6  7  1  0
  7  8  2  0
  8  9  1  0
  9 10  2  0
 10 11  1  0
  2 12  1  0
 12 13  1  0
 13 14  1  0
 14 15  1  0
 15 16  1  0
 16 17  1  0
 17 18  1  0
 10  5  1  0
 18 14  1  0
M  END
>  <ChemBL_ID>  (690) 
CHEMBL116434

>  <Compound_Key>  (690) 
16

>  <Ki>  (690) 
640.0

>  <database>  (690) 
CHEMBL

>  <Assay_ChEMBL_ID>  (690) 
CHEMBL808279

>  <Document_ChEMBL_ID>  (690) 
CHEMBL1129631

$$$$

     RDKit          2D

 21 22  0  0  0  0  0  0  0  0999 V2000
   -1.5790    3.0514    0.0000 C   0  0  0  0  0  0  0  0  0  0  0  0
   -1.2956    1.5784    0.0000 N   0  0  0  0  0  0  0  0  0  0  0  0
   -2.4296    0.5965    0.0000 C   0  0  0  0  0  0  0  0  0  0  0  0
   -3.8469    1.0875    0.0000 C   0  0  0  0  0  0  0  0  0  0  0  0
   -4.9809    0.1056    0.0000 N   0  0  0  0  0  0  0  0  0  0  0  0
   -4.8530   -1.3889    0.0000 C   0  0  0  0  0  0  0  0  0  0  0  0
   -6.2349   -1.9724    0.0000 C   0  0  0  0  0  0  0  0  0  0  0  0
   -7.2168   -0.8384    0.0000 C   0  0  0  0  0  0  0  0  0  0  0  0
   -6.4418    0.4459    0.0000 C   0  0  0  0  0  0  0  0  0  0  0  0
    0.1217    1.0873    0.0000 C   0  0  0  0  0  0  0  0  0  0  0  0
    1.2557    2.0693    0.0000 O   0  0  0  0  0  0  0  0  0  0  0  0
    0.4051   -0.3856    0.0000 C   0  0  0  0  0  0  0  0  0  0  0  0
    1.8225   -0.8767    0.0000 C   0  0  0  0  0  0  0  0  0  0  0  0
    2.1059   -2.3497    0.0000 C   0  0  0  0  0  0  0  0  0  0  0  0
    3.5232   -2.8408    0.0000 C   0  0  0  0  0  0  0  0  0  0  0  0
    4.6571   -1.8588    0.0000 C   0  0  0  0  0  0  0  0  0  0  0  0
    4.3737   -0.3859    0.0000 C   0  0  0  0  0  0  0  0  0  0  0  0
    5.5077    0.5961    0.0000 N   0  0  0  0  0  4  0  0  0  0  0  0
    5.2243    2.0690    0.0000 O   0  0  0  0  0  0  0  0  0  0  0  0
    6.9250    0.1050    0.0000 O   0  0  0  0  0  1  0  0  0  0  0  0
    2.9564    0.1052    0.0000 C   0  0  0  0  0  0  0  0  0  0  0  0
  1  2  1  0
  2  3  1  0
  3  4  1  0
  4  5  1  0
  5  6  1  0
  6  7  1  0
  7  8  1  0
  8  9  1  0
  2 10  1  0
 10 11  2  0
 10 12  1  0
 12 13  1  0
 13 14  2  0
 14 15  1  0
 15 16  2  0
 16 17  1  0
 17 18  1  0
 18 19  2  0
 18 20  1  0
 17 21  2  0
  9  5  1  0
 21 13  1  0
M  CHG  2  18   1  20  -1
M  END
>  <ChemBL_ID>  (691) 
CHEMBL326935

>  <Compound_Key>  (691) 
8

>  <Ki>  (691) 
539.0

>  <database>  (691) 
CHEMBL

>  <Assay_ChEMBL_ID>  (691) 
CHEMBL808279

>  <Document_ChEMBL_ID>  (691) 
CHEMBL1129631

$$$$

     RDKit          2D

 25 27  0  0  0  0  0  0  0  0999 V2000
   -3.5540    2.1462    0.0000 O   0  0  0  0  0  0  0  0  0  0  0  0
   -4.0326    0.7246    0.0000 C   0  0  0  0  0  0  0  0  0  0  0  0
   -3.0408   -0.4007    0.0000 C   0  0  0  0  0  0  0  0  0  0  0  0
   -1.5703   -0.1044    0.0000 C   0  0  0  0  0  0  0  0  0  0  0  0
   -0.5785   -1.2297    0.0000 C   0  0  0  0  0  0  0  0  0  0  0  0
    0.8920   -0.9334    0.0000 N   0  0  0  0  0  0  0  0  0  0  0  0
    1.8838   -2.0587    0.0000 C   0  0  0  0  0  0  0  0  0  0  0  0
    3.3542   -1.7624    0.0000 C   0  0  0  0  0  0  0  0  0  0  0  0
    3.8328   -0.3408    0.0000 N   0  0  0  0  0  0  0  0  0  0  0  0
    5.3033   -0.0445    0.0000 C   0  0  0  0  0  0  0  0  0  0  0  0
    6.2951   -1.1697    0.0000 N   0  0  0  0  0  0  0  0  0  0  0  0
    7.7656   -0.8734    0.0000 C   0  0  0  0  0  0  0  0  0  0  0  0
    8.2442    0.5482    0.0000 C   0  0  0  0  0  0  0  0  0  0  0  0
    9.7146    0.8445    0.0000 F   0  0  0  0  0  0  0  0  0  0  0  0
    7.2523    1.6734    0.0000 C   0  0  0  0  0  0  0  0  0  0  0  0
    5.7819    1.3771    0.0000 N   0  0  0  0  0  0  0  0  0  0  0  0
    2.8410    0.7845    0.0000 C   0  0  0  0  0  0  0  0  0  0  0  0
    1.3706    0.4882    0.0000 C   0  0  0  0  0  0  0  0  0  0  0  0
   -5.5030    0.4283    0.0000 C   0  0  0  0  0  0  0  0  0  0  0  0
   -6.4949    1.5535    0.0000 C   0  0  0  0  0  0  0  0  0  0  0  0
   -7.9653    1.2572    0.0000 C   0  0  0  0  0  0  0  0  0  0  0  0
   -8.4439   -0.1644    0.0000 C   0  0  0  0  0  0  0  0  0  0  0  0
   -9.9144   -0.4607    0.0000 F   0  0  0  0  0  0  0  0  0  0  0  0
   -7.4521   -1.2896    0.0000 C   0  0  0  0  0  0  0  0  0  0  0  0
   -5.9816   -0.9933    0.0000 C   0  0  0  0  0  0  0  0  0  0  0  0
  2  1  1  1
  2  3  1  0
  3  4  1  0
  4  5  1  0
  5  6  1  0
  6  7  1  0
  7  8  1  0
  8  9  1  0
  9 10  1  0
 10 11  2  0
 11 12  1  0
 12 13  2  0
 13 14  1  0
 13 15  1  0
 15 16  2  0
  9 17  1  0
 17 18  1  0
  2 19  1  0
 19 20  2  0
 20 21  1  0
 21 22  2  0
 22 23  1  0
 22 24  1  0
 24 25  2  0
 18  6  1  0
 25 19  1  0
 16 10  1  0
M  END
>  <ChemBL_ID>  (692) 
CHEMBL129263

>  <Compound_Key>  (692) 
(S)-(-)-3c

>  <Ki>  (692) 
96.0

>  <database>  (692) 
CHEMBL

>  <Assay_ChEMBL_ID>  (692) 
CHEMBL844344

>  <Document_ChEMBL_ID>  (692) 
CHEMBL1126960

$$$$

     RDKit          2D

 27 30  0  0  0  0  0  0  0  0999 V2000
    1.9063   -2.8930    0.0000 C   0  0  0  0  0  0  0  0  0  0  0  0
    0.5762   -2.1995    0.0000 N   0  0  0  0  0  0  0  0  0  0  0  0
   -0.6894   -3.0046    0.0000 C   0  0  0  0  0  0  0  0  0  0  0  0
   -2.0195   -2.3111    0.0000 C   0  0  0  0  0  0  0  0  0  0  0  0
   -2.0840   -0.8125    0.0000 C   0  0  0  0  0  0  0  0  0  0  0  0
   -3.4140   -0.1191    0.0000 C   0  0  0  0  0  0  0  0  0  0  0  0
   -3.4785    1.3796    0.0000 C   0  0  0  0  0  0  0  0  0  0  0  0
   -4.8086    2.0730    0.0000 C   0  0  0  0  0  0  0  0  0  0  0  0
   -6.0742    1.2679    0.0000 C   0  0  0  0  0  0  0  0  0  0  0  0
   -6.0097   -0.2307    0.0000 C   0  0  0  0  0  0  0  0  0  0  0  0
   -7.2753   -1.0359    0.0000 O   0  0  0  0  0  0  0  0  0  0  0  0
   -4.6796   -0.9242    0.0000 C   0  0  0  0  0  0  0  0  0  0  0  0
   -2.1484    0.6861    0.0000 C   0  0  0  0  0  0  0  0  0  0  0  0
   -0.8828    1.4912    0.0000 C   0  0  0  0  0  0  0  0  0  0  0  0
   -0.9473    2.9898    0.0000 O   0  0  0  0  0  0  0  0  0  0  0  0
    0.4473    0.7977    0.0000 C   0  0  0  0  0  0  0  0  0  0  0  0
    1.7129    1.6029    0.0000 C   0  0  0  0  0  0  0  0  0  0  0  0
    3.0429    0.9094    0.0000 C   0  0  0  0  0  0  0  0  0  0  0  0
    3.1074   -0.5892    0.0000 C   0  0  0  0  0  0  0  0  0  0  0  0
    4.4375   -1.2827    0.0000 C   0  0  0  0  0  0  0  0  0  0  0  0
    5.7031   -0.4776    0.0000 C   0  0  0  0  0  0  0  0  0  0  0  0
    7.0331   -1.1710    0.0000 Cl  0  0  0  0  0  0  0  0  0  0  0  0
    5.6386    1.0211    0.0000 C   0  0  0  0  0  0  0  0  0  0  0  0
    6.9042    1.8262    0.0000 Cl  0  0  0  0  0  0  0  0  0  0  0  0
    4.3085    1.7145    0.0000 C   0  0  0  0  0  0  0  0  0  0  0  0
    0.5117   -0.7009    0.0000 C   0  0  0  0  0  0  0  0  0  0  0  0
   -0.8184   -0.0074    0.0000 C   0  0  0  0  0  0  0  0  0  0  0  0
  1  2  1  0
  2  3  1  0
  3  4  1  0
  4  5  1  0
  5  6  1  1
  6  7  2  0
  7  8  1  0
  8  9  2  0
  9 10  1  0
 10 11  1  0
 10 12  2  0
  5 13  1  0
 13 14  1  0
 14 15  2  0
 14 16  1  0
 16 17  2  0
 17 18  1  0
 18 19  2  0
 19 20  1  0
 20 21  2  0
 21 22  1  0
 21 23  1  0
 23 24  1  0
 23 25  2  0
 16 26  1  0
 26 27  1  0
 26  2  1  6
 27  5  1  0
 12  6  1  0
 25 18  1  0
M  END
>  <ChemBL_ID>  (693) 
CHEMBL322468

>  <Compound_Key>  (693) 
(+)-3

>  <Ki>  (693) 
13.4

>  <database>  (693) 
CHEMBL

>  <Assay_ChEMBL_ID>  (693) 
CHEMBL809526

>  <Document_ChEMBL_ID>  (693) 
CHEMBL1128667

$$$$

     RDKit          2D

 27 30  0  0  0  0  0  0  0  0999 V2000
    1.9063   -2.8930    0.0000 C   0  0  0  0  0  0  0  0  0  0  0  0
    0.5762   -2.1995    0.0000 N   0  0  0  0  0  0  0  0  0  0  0  0
   -0.6894   -3.0046    0.0000 C   0  0  0  0  0  0  0  0  0  0  0  0
   -2.0195   -2.3111    0.0000 C   0  0  0  0  0  0  0  0  0  0  0  0
   -2.0840   -0.8125    0.0000 C   0  0  0  0  0  0  0  0  0  0  0  0
   -3.4140   -0.1191    0.0000 C   0  0  0  0  0  0  0  0  0  0  0  0
   -3.4785    1.3796    0.0000 C   0  0  0  0  0  0  0  0  0  0  0  0
   -4.8086    2.0730    0.0000 C   0  0  0  0  0  0  0  0  0  0  0  0
   -6.0742    1.2679    0.0000 C   0  0  0  0  0  0  0  0  0  0  0  0
   -6.0097   -0.2307    0.0000 C   0  0  0  0  0  0  0  0  0  0  0  0
   -7.2753   -1.0359    0.0000 O   0  0  0  0  0  0  0  0  0  0  0  0
   -4.6796   -0.9242    0.0000 C   0  0  0  0  0  0  0  0  0  0  0  0
   -2.1484    0.6861    0.0000 C   0  0  0  0  0  0  0  0  0  0  0  0
   -0.8828    1.4912    0.0000 C   0  0  0  0  0  0  0  0  0  0  0  0
   -0.9473    2.9898    0.0000 O   0  0  0  0  0  0  0  0  0  0  0  0
    0.4473    0.7977    0.0000 C   0  0  0  0  0  0  0  0  0  0  0  0
    1.7129    1.6029    0.0000 C   0  0  0  0  0  0  0  0  0  0  0  0
    3.0429    0.9094    0.0000 C   0  0  0  0  0  0  0  0  0  0  0  0
    3.1074   -0.5892    0.0000 C   0  0  0  0  0  0  0  0  0  0  0  0
    4.4375   -1.2827    0.0000 C   0  0  0  0  0  0  0  0  0  0  0  0
    5.7031   -0.4776    0.0000 C   0  0  0  0  0  0  0  0  0  0  0  0
    7.0331   -1.1710    0.0000 Cl  0  0  0  0  0  0  0  0  0  0  0  0
    5.6386    1.0211    0.0000 C   0  0  0  0  0  0  0  0  0  0  0  0
    6.9042    1.8262    0.0000 Cl  0  0  0  0  0  0  0  0  0  0  0  0
    4.3085    1.7145    0.0000 C   0  0  0  0  0  0  0  0  0  0  0  0
    0.5117   -0.7009    0.0000 C   0  0  0  0  0  0  0  0  0  0  0  0
   -0.8184   -0.0074    0.0000 C   0  0  0  0  0  0  0  0  0  0  0  0
  1  2  1  0
  2  3  1  0
  3  4  1  0
  4  5  1  0
  5  6  1  6
  6  7  2  0
  7  8  1  0
  8  9  2  0
  9 10  1  0
 10 11  1  0
 10 12  2  0
  5 13  1  0
 13 14  1  0
 14 15  2  0
 14 16  1  0
 16 17  2  0
 17 18  1  0
 18 19  2  0
 19 20  1  0
 20 21  2  0
 21 22  1  0
 21 23  1  0
 23 24  1  0
 23 25  2  0
 16 26  1  0
 26 27  1  0
 26  2  1  1
 27  5  1  0
 12  6  1  0
 25 18  1  0
M  END
>  <ChemBL_ID>  (694) 
CHEMBL322468

>  <Compound_Key>  (694) 
(-)-3

>  <Ki>  (694) 
35.5

>  <database>  (694) 
CHEMBL

>  <Assay_ChEMBL_ID>  (694) 
CHEMBL809526

>  <Document_ChEMBL_ID>  (694) 
CHEMBL1128667

$$$$

     RDKit          2D

 30 34  0  0  0  0  0  0  0  0999 V2000
    2.4960    3.0062    0.0000 C   0  0  0  0  0  0  0  0  0  0  0  0
    2.0713    1.5675    0.0000 O   0  0  0  0  0  0  0  0  0  0  0  0
    3.1049    0.4804    0.0000 C   0  0  0  0  0  0  0  0  0  0  0  0
    2.6802   -0.9582    0.0000 C   0  0  0  0  0  0  0  0  0  0  0  0
    1.2220   -1.3098    0.0000 C   0  0  0  0  0  0  0  0  0  0  0  0
    0.7974   -2.7484    0.0000 O   0  0  0  0  0  0  0  0  0  0  0  0
    0.1884   -0.2227    0.0000 N   0  0  0  0  0  0  0  0  0  0  0  0
   -1.2698   -0.5743    0.0000 C   0  0  0  0  0  0  0  0  0  0  0  0
   -1.8425   -1.9606    0.0000 C   0  0  0  0  0  0  0  0  0  0  0  0
   -3.3380   -1.8444    0.0000 C   0  0  0  0  0  0  0  0  0  0  0  0
   -3.6895   -0.3861    0.0000 N   0  0  0  0  0  0  0  0  0  0  0  0
   -5.0759    0.1866    0.0000 C   0  0  0  0  0  0  0  0  0  0  0  0
   -5.2731    1.6735    0.0000 C   0  0  0  0  0  0  0  0  0  0  0  0
   -6.6595    2.2462    0.0000 C   0  0  0  0  0  0  0  0  0  0  0  0
   -7.8486    1.3319    0.0000 C   0  0  0  0  0  0  0  0  0  0  0  0
   -7.6514   -0.1550    0.0000 C   0  0  0  0  0  0  0  0  0  0  0  0
   -6.2650   -0.7277    0.0000 C   0  0  0  0  0  0  0  0  0  0  0  0
   -4.8787   -1.3004    0.0000 C   0  0  0  0  0  0  0  0  0  0  0  0
   -3.6895   -0.3861    0.0000 C   0  0  0  0  0  0  0  0  0  0  0  0
   -3.8867    1.1008    0.0000 C   0  0  0  0  0  0  0  0  0  0  0  0
   -2.4113    0.3988    0.0000 C   0  0  0  0  0  0  0  0  0  0  0  0
    3.7138   -2.0453    0.0000 C   0  0  0  0  0  0  0  0  0  0  0  0
    5.1720   -1.6937    0.0000 C   0  0  0  0  0  0  0  0  0  0  0  0
    6.2056   -2.7808    0.0000 Br  0  0  0  0  0  0  0  0  0  0  0  0
    5.5967   -0.2551    0.0000 C   0  0  0  0  0  0  0  0  0  0  0  0
    7.0549    0.0965    0.0000 C   0  0  0  0  0  0  0  0  0  0  0  0
    7.4795    1.5351    0.0000 C   0  0  0  0  0  0  0  0  0  0  0  0
    6.4460    2.6222    0.0000 C   0  0  0  0  0  0  0  0  0  0  0  0
    4.9877    2.2706    0.0000 C   0  0  0  0  0  0  0  0  0  0  0  0
    4.5631    0.8320    0.0000 C   0  0  0  0  0  0  0  0  0  0  0  0
  1  2  1  0
  2  3  1  0
  3  4  2  0
  4  5  1  0
  5  6  2  0
  5  7  1  0
  8  7  1  1
  8  9  1  0
  9 10  1  0
 10 11  1  0
 11 12  1  0
 12 13  1  0
 13 14  1  0
 14 15  1  0
 15 16  1  0
 16 17  1  0
 17 18  1  0
 18 19  1  0
 19 20  1  0
 11 21  1  0
  4 22  1  0
 22 23  2  0
 23 24  1  0
 23 25  1  0
 25 26  2  0
 26 27  1  0
 27 28  2  0
 28 29  1  0
 29 30  2  0
 30  3  1  0
 21  8  1  0
 30 25  1  0
 17 12  1  0
 20 13  1  0
M  END
>  <ChemBL_ID>  (695) 
CHEMBL416846

>  <Compound_Key>  (695) 
11

>  <Ki>  (695) 
137.0

>  <database>  (695) 
CHEMBL

>  <Assay_ChEMBL_ID>  (695) 
CHEMBL808906

>  <Document_ChEMBL_ID>  (695) 
CHEMBL1134687

$$$$

     RDKit          2D

 27 30  0  0  0  0  0  0  0  0999 V2000
   -9.4439   -0.8282    0.0000 C   0  0  0  0  0  0  0  0  0  0  0  0
   -8.0074   -1.2600    0.0000 O   0  0  0  0  0  0  0  0  0  0  0  0
   -6.9152   -0.2320    0.0000 C   0  0  0  0  0  0  0  0  0  0  0  0
   -7.2594    1.2280    0.0000 C   0  0  0  0  0  0  0  0  0  0  0  0
   -6.1671    2.2561    0.0000 C   0  0  0  0  0  0  0  0  0  0  0  0
   -4.7306    1.8242    0.0000 C   0  0  0  0  0  0  0  0  0  0  0  0
   -4.3864    0.3642    0.0000 C   0  0  0  0  0  0  0  0  0  0  0  0
   -5.4787   -0.6638    0.0000 C   0  0  0  0  0  0  0  0  0  0  0  0
   -5.1345   -2.1238    0.0000 C   0  0  0  0  0  0  0  0  0  0  0  0
   -3.6980   -2.5557    0.0000 C   0  0  0  0  0  0  0  0  0  0  0  0
   -2.6057   -1.5276    0.0000 C   0  0  0  0  0  0  0  0  0  0  0  0
   -2.9500   -0.0676    0.0000 C   0  0  0  0  0  0  0  0  0  0  0  0
   -1.8577    0.9604    0.0000 C   0  0  0  0  0  0  0  0  0  0  0  0
   -0.4212    0.5286    0.0000 C   0  0  0  0  0  0  0  0  0  0  0  0
    0.6711    1.5566    0.0000 C   0  0  0  0  0  0  0  0  0  0  0  0
    2.1075    1.1248    0.0000 N   0  0  0  0  0  0  0  0  0  0  0  0
    2.4518   -0.3352    0.0000 C   0  0  0  0  0  0  0  0  0  0  0  0
    3.8882   -0.7671    0.0000 C   0  0  0  0  0  0  0  0  0  0  0  0
    4.9805    0.2610    0.0000 N   0  0  0  0  0  0  0  0  0  0  0  0
    6.4170   -0.1709    0.0000 C   0  0  0  0  0  0  0  0  0  0  0  0
    6.7612   -1.6309    0.0000 C   0  0  0  0  0  0  0  0  0  0  0  0
    8.1977   -2.0627    0.0000 C   0  0  0  0  0  0  0  0  0  0  0  0
    9.2899   -1.0347    0.0000 C   0  0  0  0  0  0  0  0  0  0  0  0
    8.9457    0.4253    0.0000 C   0  0  0  0  0  0  0  0  0  0  0  0
    7.5092    0.8572    0.0000 C   0  0  0  0  0  0  0  0  0  0  0  0
    4.6363    1.7210    0.0000 C   0  0  0  0  0  0  0  0  0  0  0  0
    3.1998    2.1528    0.0000 C   0  0  0  0  0  0  0  0  0  0  0  0
  1  2  1  0
  2  3  1  0
  3  4  2  0
  4  5  1  0
  5  6  2  0
  6  7  1  0
  7  8  2  0
  8  9  1  0
  9 10  1  0
 10 11  1  0
 11 12  1  0
 12 13  1  1
 13 14  1  0
 14 15  1  0
 15 16  1  0
 16 17  1  0
 17 18  1  0
 18 19  1  0
 19 20  1  0
 20 21  1  0
 21 22  1  0
 22 23  1  0
 23 24  1  0
 24 25  1  0
 19 26  1  0
 26 27  1  0
  8  3  1  0
 27 16  1  0
 12  7  1  0
 25 20  1  0
M  END
>  <Compound_Key>  (696) 
(-)-R-PB28

>  <Ki>  (696) 
0.49

>  <database>  (696) 
NewLiterature

>  <Document_ChEMBL_ID>  (696) 
10.1038/s41598-023-39662-w

$$$$

     RDKit          2D

 29 32  0  0  0  0  0  0  0  0999 V2000
    2.7466    2.9271    0.0000 C   0  0  0  0  0  0  0  0  0  0  0  0
    2.0701    1.5884    0.0000 O   0  0  0  0  0  0  0  0  0  0  0  0
    2.8913    0.3331    0.0000 C   0  0  0  0  0  0  0  0  0  0  0  0
    2.2148   -1.0057    0.0000 C   0  0  0  0  0  0  0  0  0  0  0  0
    0.7171   -1.0892    0.0000 C   0  0  0  0  0  0  0  0  0  0  0  0
    0.0406   -2.4280    0.0000 O   0  0  0  0  0  0  0  0  0  0  0  0
   -0.1041    0.1661    0.0000 N   0  0  0  0  0  0  0  0  0  0  0  0
   -1.6017    0.0825    0.0000 C   0  0  0  0  0  0  0  0  0  0  0  0
   -2.4229    1.3378    0.0000 C   0  0  0  0  0  0  0  0  0  0  0  0
   -1.8900    2.7400    0.0000 C   0  0  0  0  0  0  0  0  0  0  0  0
   -3.0589    3.6800    0.0000 C   0  0  0  0  0  0  0  0  0  0  0  0
   -4.3142    2.8589    0.0000 C   0  0  0  0  0  0  0  0  0  0  0  0
   -3.9211    1.4113    0.0000 N   0  0  0  0  0  0  0  0  0  0  0  0
   -4.8612    0.2424    0.0000 C   0  0  0  0  0  0  0  0  0  0  0  0
   -4.2159   -1.1117    0.0000 C   0  0  0  0  0  0  0  0  0  0  0  0
   -4.8723   -2.4605    0.0000 C   0  0  0  0  0  0  0  0  0  0  0  0
   -6.3361   -2.7882    0.0000 C   0  0  0  0  0  0  0  0  0  0  0  0
   -7.5050   -1.8481    0.0000 C   0  0  0  0  0  0  0  0  0  0  0  0
   -7.4988   -0.3481    0.0000 C   0  0  0  0  0  0  0  0  0  0  0  0
   -6.3222    0.5822    0.0000 C   0  0  0  0  0  0  0  0  0  0  0  0
    3.0359   -2.2610    0.0000 C   0  0  0  0  0  0  0  0  0  0  0  0
    4.5336   -2.1774    0.0000 C   0  0  0  0  0  0  0  0  0  0  0  0
    5.3548   -3.4327    0.0000 Br  0  0  0  0  0  0  0  0  0  0  0  0
    5.2101   -0.8387    0.0000 C   0  0  0  0  0  0  0  0  0  0  0  0
    6.7078   -0.7551    0.0000 C   0  0  0  0  0  0  0  0  0  0  0  0
    7.3843    0.5836    0.0000 C   0  0  0  0  0  0  0  0  0  0  0  0
    6.5631    1.8389    0.0000 C   0  0  0  0  0  0  0  0  0  0  0  0
    5.0655    1.7554    0.0000 C   0  0  0  0  0  0  0  0  0  0  0  0
    4.3889    0.4166    0.0000 C   0  0  0  0  0  0  0  0  0  0  0  0
  1  2  1  0
  2  3  1  0
  3  4  2  0
  4  5  1  0
  5  6  2  0
  5  7  1  0
  7  8  1  0
  9  8  1  6
  9 10  1  0
 10 11  1  0
 11 12  1  0
 12 13  1  0
 13 14  1  0
 14 15  1  0
 15 16  1  0
 16 17  1  0
 17 18  1  0
 18 19  1  0
 19 20  1  0
  4 21  1  0
 21 22  2  0
 22 23  1  0
 22 24  1  0
 24 25  2  0
 25 26  1  0
 26 27  2  0
 27 28  1  0
 28 29  2  0
 29  3  1  0
 13  9  1  0
 20 14  1  0
 29 24  1  0
M  END
>  <ChemBL_ID>  (697) 
CHEMBL52300

>  <Compound_Key>  (697) 
30

>  <Ki>  (697) 
57.0

>  <database>  (697) 
CHEMBL

>  <Assay_ChEMBL_ID>  (697) 
CHEMBL808906

>  <Document_ChEMBL_ID>  (697) 
CHEMBL1134687

$$$$

     RDKit          2D

 29 32  0  0  0  0  0  0  0  0999 V2000
    0.2063    1.8016    0.0000 C   0  0  0  0  0  0  0  0  0  0  0  0
    0.4840    0.3275    0.0000 O   0  0  0  0  0  0  0  0  0  0  0  0
    1.8995   -0.1689    0.0000 C   0  0  0  0  0  0  0  0  0  0  0  0
    2.1772   -1.6430    0.0000 C   0  0  0  0  0  0  0  0  0  0  0  0
    1.0395   -2.6206    0.0000 C   0  0  0  0  0  0  0  0  0  0  0  0
    1.3173   -4.0946    0.0000 O   0  0  0  0  0  0  0  0  0  0  0  0
   -0.3759   -2.1241    0.0000 N   0  0  0  0  0  0  0  0  0  0  0  0
   -1.5136   -3.1017    0.0000 C   0  0  0  0  0  0  0  0  0  0  0  0
   -2.9291   -2.6052    0.0000 C   0  0  0  0  0  0  0  0  0  0  0  0
   -4.1627   -3.4585    0.0000 C   0  0  0  0  0  0  0  0  0  0  0  0
   -5.3555   -2.5489    0.0000 C   0  0  0  0  0  0  0  0  0  0  0  0
   -4.8590   -1.1335    0.0000 C   0  0  0  0  0  0  0  0  0  0  0  0
   -3.3594   -1.1682    0.0000 N   0  0  0  0  0  0  0  0  0  0  0  0
   -2.4498    0.0245    0.0000 C   0  0  0  0  0  0  0  0  0  0  0  0
   -3.0280    1.4086    0.0000 C   0  0  0  0  0  0  0  0  0  0  0  0
   -2.1184    2.6014    0.0000 C   0  0  0  0  0  0  0  0  0  0  0  0
   -2.6965    3.9855    0.0000 C   0  0  0  0  0  0  0  0  0  0  0  0
   -4.1843    4.1768    0.0000 C   0  0  0  0  0  0  0  0  0  0  0  0
   -5.0939    2.9840    0.0000 C   0  0  0  0  0  0  0  0  0  0  0  0
   -4.5157    1.6000    0.0000 C   0  0  0  0  0  0  0  0  0  0  0  0
    3.5927   -2.1395    0.0000 C   0  0  0  0  0  0  0  0  0  0  0  0
    4.7304   -1.1619    0.0000 C   0  0  0  0  0  0  0  0  0  0  0  0
    6.1458   -1.6584    0.0000 Br  0  0  0  0  0  0  0  0  0  0  0  0
    4.4526    0.3121    0.0000 C   0  0  0  0  0  0  0  0  0  0  0  0
    5.5903    1.2897    0.0000 C   0  0  0  0  0  0  0  0  0  0  0  0
    5.3125    2.7638    0.0000 C   0  0  0  0  0  0  0  0  0  0  0  0
    3.8971    3.2603    0.0000 C   0  0  0  0  0  0  0  0  0  0  0  0
    2.7594    2.2827    0.0000 C   0  0  0  0  0  0  0  0  0  0  0  0
    3.0372    0.8086    0.0000 C   0  0  0  0  0  0  0  0  0  0  0  0
  1  2  1  0
  2  3  1  0
  3  4  2  0
  4  5  1  0
  5  6  2  0
  5  7  1  0
  7  8  1  0
  9  8  1  1
  9 10  1  0
 10 11  1  0
 11 12  1  0
 12 13  1  0
 13 14  1  0
 14 15  1  0
 15 16  2  0
 16 17  1  0
 17 18  2  0
 18 19  1  0
 19 20  2  0
  4 21  1  0
 21 22  2  0
 22 23  1  0
 22 24  1  0
 24 25  2  0
 25 26  1  0
 26 27  2  0
 27 28  1  0
 28 29  2  0
 29  3  1  0
 13  9  1  0
 20 15  1  0
 29 24  1  0
M  END
>  <ChemBL_ID>  (698) 
CHEMBL53102

>  <Compound_Key>  (698) 
26

>  <Ki>  (698) 
207.0

>  <database>  (698) 
CHEMBL

>  <Assay_ChEMBL_ID>  (698) 
CHEMBL808906

>  <Document_ChEMBL_ID>  (698) 
CHEMBL1134687

$$$$

     RDKit          2D

 27 30  0  0  0  0  0  0  0  0999 V2000
    0.2577    2.2473    0.0000 C   0  0  0  0  0  0  0  0  0  0  0  0
    0.1159    0.7540    0.0000 O   0  0  0  0  0  0  0  0  0  0  0  0
    1.3382   -0.1154    0.0000 C   0  0  0  0  0  0  0  0  0  0  0  0
    1.1964   -1.6087    0.0000 C   0  0  0  0  0  0  0  0  0  0  0  0
   -0.1677   -2.2325    0.0000 C   0  0  0  0  0  0  0  0  0  0  0  0
   -0.3095   -3.7258    0.0000 O   0  0  0  0  0  0  0  0  0  0  0  0
   -1.3900   -1.3631    0.0000 N   0  0  0  0  0  0  0  0  0  0  0  0
   -2.7541   -1.9869    0.0000 C   0  0  0  0  0  0  0  0  0  0  0  0
   -3.9765   -1.1175    0.0000 C   0  0  0  0  0  0  0  0  0  0  0  0
   -5.3983   -1.5953    0.0000 C   0  0  0  0  0  0  0  0  0  0  0  0
   -6.2921   -0.3907    0.0000 C   0  0  0  0  0  0  0  0  0  0  0  0
   -5.4227    0.8316    0.0000 C   0  0  0  0  0  0  0  0  0  0  0  0
   -3.9915    0.3824    0.0000 N   0  0  0  0  0  0  0  0  0  0  0  0
   -2.7869    1.2763    0.0000 C   0  0  0  0  0  0  0  0  0  0  0  0
   -2.8020    2.7762    0.0000 C   0  0  0  0  0  0  0  0  0  0  0  0
   -1.3801    3.2540    0.0000 C   0  0  0  0  0  0  0  0  0  0  0  0
   -0.4863    2.0494    0.0000 C   0  0  0  0  0  0  0  0  0  0  0  0
   -1.3558    0.8271    0.0000 C   0  0  0  0  0  0  0  0  0  0  0  0
    2.4187   -2.4781    0.0000 C   0  0  0  0  0  0  0  0  0  0  0  0
    3.7829   -1.8543    0.0000 C   0  0  0  0  0  0  0  0  0  0  0  0
    5.0052   -2.7237    0.0000 Br  0  0  0  0  0  0  0  0  0  0  0  0
    3.9247   -0.3610    0.0000 C   0  0  0  0  0  0  0  0  0  0  0  0
    5.2888    0.2628    0.0000 C   0  0  0  0  0  0  0  0  0  0  0  0
    5.4306    1.7561    0.0000 C   0  0  0  0  0  0  0  0  0  0  0  0
    4.2083    2.6256    0.0000 C   0  0  0  0  0  0  0  0  0  0  0  0
    2.8441    2.0017    0.0000 C   0  0  0  0  0  0  0  0  0  0  0  0
    2.7023    0.5084    0.0000 C   0  0  0  0  0  0  0  0  0  0  0  0
  1  2  1  0
  2  3  1  0
  3  4  2  0
  4  5  1  0
  5  6  2  0
  5  7  1  0
  7  8  1  0
  9  8  1  6
  9 10  1  0
 10 11  1  0
 11 12  1  0
 12 13  1  0
 13 14  1  0
 14 15  1  0
 15 16  1  0
 16 17  1  0
 17 18  1  0
  4 19  1  0
 19 20  2  0
 20 21  1  0
 20 22  1  0
 22 23  2  0
 23 24  1  0
 24 25  2  0
 25 26  1  0
 26 27  2  0
 27  3  1  0
 13  9  1  0
 18 14  1  0
 27 22  1  0
M  END
>  <ChemBL_ID>  (699) 
CHEMBL54571

>  <Compound_Key>  (699) 
21

>  <Ki>  (699) 
51.0

>  <database>  (699) 
CHEMBL

>  <Assay_ChEMBL_ID>  (699) 
CHEMBL808906

>  <Document_ChEMBL_ID>  (699) 
CHEMBL1134687

$$$$

     RDKit          2D

 31 35  0  0  0  0  0  0  0  0999 V2000
    1.9321    3.0666    0.0000 C   0  0  0  0  0  0  0  0  0  0  0  0
    1.2689    1.7212    0.0000 O   0  0  0  0  0  0  0  0  0  0  0  0
    2.1025    0.4741    0.0000 C   0  0  0  0  0  0  0  0  0  0  0  0
    1.4393   -0.8713    0.0000 C   0  0  0  0  0  0  0  0  0  0  0  0
   -0.0575   -0.9697    0.0000 C   0  0  0  0  0  0  0  0  0  0  0  0
   -0.7207   -2.3151    0.0000 O   0  0  0  0  0  0  0  0  0  0  0  0
   -0.8911    0.2774    0.0000 N   0  0  0  0  0  0  0  0  0  0  0  0
   -2.3878    0.1790    0.0000 C   0  0  0  0  0  0  0  0  0  0  0  0
   -3.2214    1.4261    0.0000 C   0  0  0  0  0  0  0  0  0  0  0  0
   -4.7182    1.3277    0.0000 C   0  0  0  0  0  0  0  0  0  0  0  0
   -6.2150    1.2293    0.0000 C   0  0  0  0  0  0  0  0  0  0  0  0
   -6.8782   -0.1161    0.0000 C   0  0  0  0  0  0  0  0  0  0  0  0
   -6.0446   -1.3631    0.0000 C   0  0  0  0  0  0  0  0  0  0  0  0
   -4.5478   -1.2648    0.0000 C   0  0  0  0  0  0  0  0  0  0  0  0
   -3.0510   -1.1664    0.0000 C   0  0  0  0  0  0  0  0  0  0  0  0
   -3.8846    0.0807    0.0000 N   0  0  0  0  0  0  0  0  0  0  0  0
   -2.3878    0.1790    0.0000 C   0  0  0  0  0  0  0  0  0  0  0  0
   -1.5543   -1.0680    0.0000 C   0  0  0  0  0  0  0  0  0  0  0  0
   -0.0575   -0.9697    0.0000 C   0  0  0  0  0  0  0  0  0  0  0  0
    0.6057    0.3758    0.0000 C   0  0  0  0  0  0  0  0  0  0  0  0
   -0.2279    1.6228    0.0000 C   0  0  0  0  0  0  0  0  0  0  0  0
   -1.7247    1.5245    0.0000 C   0  0  0  0  0  0  0  0  0  0  0  0
    2.2728   -2.1183    0.0000 C   0  0  0  0  0  0  0  0  0  0  0  0
    3.7696   -2.0200    0.0000 C   0  0  0  0  0  0  0  0  0  0  0  0
    4.6032   -3.2670    0.0000 Br  0  0  0  0  0  0  0  0  0  0  0  0
    4.4328   -0.6745    0.0000 C   0  0  0  0  0  0  0  0  0  0  0  0
    5.9296   -0.5762    0.0000 C   0  0  0  0  0  0  0  0  0  0  0  0
    6.5928    0.7693    0.0000 C   0  0  0  0  0  0  0  0  0  0  0  0
    5.7592    2.0163    0.0000 C   0  0  0  0  0  0  0  0  0  0  0  0
    4.2624    1.9179    0.0000 C   0  0  0  0  0  0  0  0  0  0  0  0
    3.5992    0.5725    0.0000 C   0  0  0  0  0  0  0  0  0  0  0  0
  1  2  1  0
  2  3  1  0
  3  4  2  0
  4  5  1  0
  5  6  2  0
  5  7  1  0
  7  8  1  0
  8  9  1  0
  9 10  1  0
 10 11  1  0
 11 12  1  0
 12 13  1  0
 13 14  1  0
 14 15  1  0
 14 16  1  0
 16 17  1  0
 17 18  1  0
 18 19  1  0
 19 20  1  0
 20 21  1  0
 21 22  1  0
  4 23  1  0
 23 24  2  0
 24 25  1  0
 24 26  1  0
 26 27  2  0
 27 28  1  0
 28 29  2  0
 29 30  1  0
 30 31  2  0
 31  3  1  0
 15  8  1  0
 22 17  1  0
 31 26  1  0
 16 10  1  0
M  END
>  <ChemBL_ID>  (700) 
CHEMBL423122

>  <Compound_Key>  (700) 
32

>  <Ki>  (700) 
4.8

>  <database>  (700) 
CHEMBL

>  <Assay_ChEMBL_ID>  (700) 
CHEMBL808906

>  <Document_ChEMBL_ID>  (700) 
CHEMBL1134687

$$$$

     RDKit          2D

 32 36  0  0  0  0  0  0  0  0999 V2000
    1.9110    3.0541    0.0000 C   0  0  0  0  0  0  0  0  0  0  0  0
    1.2474    1.7088    0.0000 O   0  0  0  0  0  0  0  0  0  0  0  0
    2.0806    0.4615    0.0000 C   0  0  0  0  0  0  0  0  0  0  0  0
    1.4169   -0.8837    0.0000 C   0  0  0  0  0  0  0  0  0  0  0  0
   -0.0799   -0.9816    0.0000 C   0  0  0  0  0  0  0  0  0  0  0  0
   -0.7435   -2.3268    0.0000 O   0  0  0  0  0  0  0  0  0  0  0  0
   -0.9130    0.2657    0.0000 N   0  0  0  0  0  0  0  0  0  0  0  0
   -2.4098    0.1679    0.0000 C   0  0  0  0  0  0  0  0  0  0  0  0
   -3.2430    1.4152    0.0000 C   0  0  0  0  0  0  0  0  0  0  0  0
   -4.7398    1.3173    0.0000 C   0  0  0  0  0  0  0  0  0  0  0  0
   -6.2366    1.2194    0.0000 C   0  0  0  0  0  0  0  0  0  0  0  0
   -6.9002   -0.1258    0.0000 C   0  0  0  0  0  0  0  0  0  0  0  0
   -6.0671   -1.3731    0.0000 C   0  0  0  0  0  0  0  0  0  0  0  0
   -4.5703   -1.2753    0.0000 C   0  0  0  0  0  0  0  0  0  0  0  0
   -3.0735   -1.1774    0.0000 C   0  0  0  0  0  0  0  0  0  0  0  0
   -3.9066    0.0700    0.0000 N   0  0  0  0  0  0  0  0  0  0  0  0
   -2.4098    0.1679    0.0000 C   0  0  0  0  0  0  0  0  0  0  0  0
   -1.8486    1.5589    0.0000 C   0  0  0  0  0  0  0  0  0  0  0  0
   -0.4111    1.9874    0.0000 C   0  0  0  0  0  0  0  0  0  0  0  0
    0.8202    1.1307    0.0000 C   0  0  0  0  0  0  0  0  0  0  0  0
    0.9181   -0.3661    0.0000 C   0  0  0  0  0  0  0  0  0  0  0  0
   -0.1912   -1.3759    0.0000 C   0  0  0  0  0  0  0  0  0  0  0  0
   -1.6722   -1.1382    0.0000 C   0  0  0  0  0  0  0  0  0  0  0  0
    2.2501   -2.1310    0.0000 C   0  0  0  0  0  0  0  0  0  0  0  0
    3.7469   -2.0331    0.0000 C   0  0  0  0  0  0  0  0  0  0  0  0
    4.5801   -3.2805    0.0000 Br  0  0  0  0  0  0  0  0  0  0  0  0
    4.4105   -0.6879    0.0000 C   0  0  0  0  0  0  0  0  0  0  0  0
    5.9073   -0.5900    0.0000 C   0  0  0  0  0  0  0  0  0  0  0  0
    6.5710    0.7552    0.0000 C   0  0  0  0  0  0  0  0  0  0  0  0
    5.7378    2.0025    0.0000 C   0  0  0  0  0  0  0  0  0  0  0  0
    4.2410    1.9046    0.0000 C   0  0  0  0  0  0  0  0  0  0  0  0
    3.5774    0.5594    0.0000 C   0  0  0  0  0  0  0  0  0  0  0  0
  1  2  1  0
  2  3  1  0
  3  4  2  0
  4  5  1  0
  5  6  2  0
  5  7  1  0
  7  8  1  0
  8  9  1  0
  9 10  1  0
 10 11  1  0
 11 12  1  0
 12 13  1  0
 13 14  1  0
 14 15  1  0
 14 16  1  0
 16 17  1  0
 17 18  1  0
 18 19  1  0
 19 20  1  0
 20 21  1  0
 21 22  1  0
 22 23  1  0
  4 24  1  0
 24 25  2  0
 25 26  1  0
 25 27  1  0
 27 28  2  0
 28 29  1  0
 29 30  2  0
 30 31  1  0
 31 32  2  0
 32  3  1  0
 15  8  1  0
 23 17  1  0
 32 27  1  0
 16 10  1  0
M  END
>  <ChemBL_ID>  (701) 
CHEMBL298864

>  <Compound_Key>  (701) 
33

>  <Ki>  (701) 
7.9

>  <database>  (701) 
CHEMBL

>  <Assay_ChEMBL_ID>  (701) 
CHEMBL808906

>  <Document_ChEMBL_ID>  (701) 
CHEMBL1134687

$$$$

     RDKit          2D

 32 37  0  0  0  0  0  0  0  0999 V2000
    0.2791    1.7657    0.0000 C   0  0  0  0  0  0  0  0  0  0  0  0
    0.3454    0.2672    0.0000 O   0  0  0  0  0  0  0  0  0  0  0  0
    1.6763   -0.4247    0.0000 C   0  0  0  0  0  0  0  0  0  0  0  0
    1.7426   -1.9232    0.0000 C   0  0  0  0  0  0  0  0  0  0  0  0
    0.4780   -2.7299    0.0000 C   0  0  0  0  0  0  0  0  0  0  0  0
    0.5444   -4.2284    0.0000 O   0  0  0  0  0  0  0  0  0  0  0  0
   -0.8529   -2.0381    0.0000 N   0  0  0  0  0  0  0  0  0  0  0  0
   -2.1175   -2.8448    0.0000 C   0  0  0  0  0  0  0  0  0  0  0  0
   -3.4484   -2.1530    0.0000 C   0  0  0  0  0  0  0  0  0  0  0  0
   -4.7904   -2.8231    0.0000 C   0  0  0  0  0  0  0  0  0  0  0  0
   -5.8424   -1.7538    0.0000 C   0  0  0  0  0  0  0  0  0  0  0  0
   -5.1506   -0.4229    0.0000 C   0  0  0  0  0  0  0  0  0  0  0  0
   -3.6710   -0.6696    0.0000 N   0  0  0  0  0  0  0  0  0  0  0  0
   -2.6018    0.3824    0.0000 C   0  0  0  0  0  0  0  0  0  0  0  0
   -2.9782    1.8344    0.0000 C   0  0  0  0  0  0  0  0  0  0  0  0
   -1.5325    1.4344    0.0000 C   0  0  0  0  0  0  0  0  0  0  0  0
   -0.4633    2.4864    0.0000 C   0  0  0  0  0  0  0  0  0  0  0  0
   -0.8397    3.9384    0.0000 C   0  0  0  0  0  0  0  0  0  0  0  0
   -2.2854    4.3384    0.0000 C   0  0  0  0  0  0  0  0  0  0  0  0
   -2.2081    1.0517    0.0000 C   0  0  0  0  0  0  0  0  0  0  0  0
   -1.1561   -0.0176    0.0000 C   0  0  0  0  0  0  0  0  0  0  0  0
   -0.0868    1.0344    0.0000 C   0  0  0  0  0  0  0  0  0  0  0  0
   -3.3547    3.2864    0.0000 C   0  0  0  0  0  0  0  0  0  0  0  0
    3.0736   -2.6150    0.0000 C   0  0  0  0  0  0  0  0  0  0  0  0
    4.3382   -1.8083    0.0000 C   0  0  0  0  0  0  0  0  0  0  0  0
    5.6691   -2.5001    0.0000 Br  0  0  0  0  0  0  0  0  0  0  0  0
    4.2719   -0.3098    0.0000 C   0  0  0  0  0  0  0  0  0  0  0  0
    5.5365    0.4969    0.0000 C   0  0  0  0  0  0  0  0  0  0  0  0
    5.4701    1.9955    0.0000 C   0  0  0  0  0  0  0  0  0  0  0  0
    4.1392    2.6873    0.0000 C   0  0  0  0  0  0  0  0  0  0  0  0
    2.8746    1.8806    0.0000 C   0  0  0  0  0  0  0  0  0  0  0  0
    2.9409    0.3820    0.0000 C   0  0  0  0  0  0  0  0  0  0  0  0
  1  2  1  0
  2  3  1  0
  3  4  2  0
  4  5  1  0
  5  6  2  0
  5  7  1  0
  7  8  1  0
  9  8  1  6
  9 10  1  0
 10 11  1  0
 11 12  1  0
 12 13  1  0
 13 14  1  0
 14 15  1  0
 15 16  1  1
 17 16  1  1
 17 18  1  0
 19 18  1  1
 19 20  1  0
 21 20  1  6
 21 22  1  0
 19 23  1  0
  4 24  1  0
 24 25  2  0
 25 26  1  0
 25 27  1  0
 27 28  2  0
 28 29  1  0
 29 30  2  0
 30 31  1  0
 31 32  2  0
 32  3  1  0
 13  9  1  0
 21 14  1  0
 32 27  1  0
 23 15  1  0
 22 17  1  0
M  END
>  <ChemBL_ID>  (702) 
CHEMBL53218

>  <Compound_Key>  (702) 
25

>  <Ki>  (702) 
141.0

>  <database>  (702) 
CHEMBL

>  <Assay_ChEMBL_ID>  (702) 
CHEMBL808906

>  <Document_ChEMBL_ID>  (702) 
CHEMBL1134687

$$$$

     RDKit          2D

 26 29  0  0  0  0  0  0  0  0999 V2000
    0.2506    2.3420    0.0000 C   0  0  0  0  0  0  0  0  0  0  0  0
    0.0871    0.8509    0.0000 O   0  0  0  0  0  0  0  0  0  0  0  0
    1.2966   -0.0362    0.0000 C   0  0  0  0  0  0  0  0  0  0  0  0
    1.1332   -1.5272    0.0000 C   0  0  0  0  0  0  0  0  0  0  0  0
   -0.2399   -2.1312    0.0000 C   0  0  0  0  0  0  0  0  0  0  0  0
   -0.4034   -3.6223    0.0000 O   0  0  0  0  0  0  0  0  0  0  0  0
   -1.4494   -1.2441    0.0000 N   0  0  0  0  0  0  0  0  0  0  0  0
   -2.8225   -1.8480    0.0000 C   0  0  0  0  0  0  0  0  0  0  0  0
   -4.0320   -0.9609    0.0000 C   0  0  0  0  0  0  0  0  0  0  0  0
   -5.4607   -1.4180    0.0000 C   0  0  0  0  0  0  0  0  0  0  0  0
   -6.3369   -0.2006    0.0000 C   0  0  0  0  0  0  0  0  0  0  0  0
   -5.4498    1.0090    0.0000 C   0  0  0  0  0  0  0  0  0  0  0  0
   -4.0253    0.5391    0.0000 N   0  0  0  0  0  0  0  0  0  0  0  0
   -2.8078    1.4153    0.0000 C   0  0  0  0  0  0  0  0  0  0  0  0
   -1.3274    1.1740    0.0000 C   0  0  0  0  0  0  0  0  0  0  0  0
   -1.0861    2.6545    0.0000 C   0  0  0  0  0  0  0  0  0  0  0  0
   -2.5665    2.8958    0.0000 C   0  0  0  0  0  0  0  0  0  0  0  0
    2.3427   -2.4144    0.0000 C   0  0  0  0  0  0  0  0  0  0  0  0
    3.7158   -1.8104    0.0000 C   0  0  0  0  0  0  0  0  0  0  0  0
    4.9253   -2.6975    0.0000 Br  0  0  0  0  0  0  0  0  0  0  0  0
    3.8792   -0.3193    0.0000 C   0  0  0  0  0  0  0  0  0  0  0  0
    5.2523    0.2846    0.0000 C   0  0  0  0  0  0  0  0  0  0  0  0
    5.4158    1.7757    0.0000 C   0  0  0  0  0  0  0  0  0  0  0  0
    4.2062    2.6628    0.0000 C   0  0  0  0  0  0  0  0  0  0  0  0
    2.8332    2.0588    0.0000 C   0  0  0  0  0  0  0  0  0  0  0  0
    2.6697    0.5678    0.0000 C   0  0  0  0  0  0  0  0  0  0  0  0
  1  2  1  0
  2  3  1  0
  3  4  2  0
  4  5  1  0
  5  6  2  0
  5  7  1  0
  7  8  1  0
  9  8  1  6
  9 10  1  0
 10 11  1  0
 11 12  1  0
 12 13  1  0
 13 14  1  0
 14 15  1  0
 15 16  1  0
 16 17  1  0
  4 18  1  0
 18 19  2  0
 19 20  1  0
 19 21  1  0
 21 22  2  0
 22 23  1  0
 23 24  2  0
 24 25  1  0
 25 26  2  0
 26  3  1  0
 13  9  1  0
 17 14  1  0
 26 21  1  0
M  END
>  <ChemBL_ID>  (703) 
CHEMBL298759

>  <Compound_Key>  (703) 
20

>  <Ki>  (703) 
152.0

>  <database>  (703) 
CHEMBL

>  <Assay_ChEMBL_ID>  (703) 
CHEMBL808906

>  <Document_ChEMBL_ID>  (703) 
CHEMBL1134687

$$$$

     RDKit          2D

 29 32  0  0  0  0  0  0  0  0999 V2000
    0.2063    1.8016    0.0000 C   0  0  0  0  0  0  0  0  0  0  0  0
    0.4840    0.3275    0.0000 O   0  0  0  0  0  0  0  0  0  0  0  0
    1.8995   -0.1689    0.0000 C   0  0  0  0  0  0  0  0  0  0  0  0
    2.1772   -1.6430    0.0000 C   0  0  0  0  0  0  0  0  0  0  0  0
    1.0395   -2.6206    0.0000 C   0  0  0  0  0  0  0  0  0  0  0  0
    1.3173   -4.0946    0.0000 O   0  0  0  0  0  0  0  0  0  0  0  0
   -0.3759   -2.1241    0.0000 N   0  0  0  0  0  0  0  0  0  0  0  0
   -1.5136   -3.1017    0.0000 C   0  0  0  0  0  0  0  0  0  0  0  0
   -2.9291   -2.6052    0.0000 C   0  0  0  0  0  0  0  0  0  0  0  0
   -4.1627   -3.4585    0.0000 C   0  0  0  0  0  0  0  0  0  0  0  0
   -5.3555   -2.5489    0.0000 C   0  0  0  0  0  0  0  0  0  0  0  0
   -4.8590   -1.1335    0.0000 C   0  0  0  0  0  0  0  0  0  0  0  0
   -3.3594   -1.1682    0.0000 N   0  0  0  0  0  0  0  0  0  0  0  0
   -2.4498    0.0245    0.0000 C   0  0  0  0  0  0  0  0  0  0  0  0
   -3.0280    1.4086    0.0000 C   0  0  0  0  0  0  0  0  0  0  0  0
   -2.1184    2.6014    0.0000 C   0  0  0  0  0  0  0  0  0  0  0  0
   -2.6965    3.9855    0.0000 C   0  0  0  0  0  0  0  0  0  0  0  0
   -4.1843    4.1768    0.0000 C   0  0  0  0  0  0  0  0  0  0  0  0
   -5.0939    2.9840    0.0000 C   0  0  0  0  0  0  0  0  0  0  0  0
   -4.5157    1.6000    0.0000 C   0  0  0  0  0  0  0  0  0  0  0  0
    3.5927   -2.1395    0.0000 C   0  0  0  0  0  0  0  0  0  0  0  0
    4.7304   -1.1619    0.0000 C   0  0  0  0  0  0  0  0  0  0  0  0
    6.1458   -1.6584    0.0000 Br  0  0  0  0  0  0  0  0  0  0  0  0
    4.4526    0.3121    0.0000 C   0  0  0  0  0  0  0  0  0  0  0  0
    5.5903    1.2897    0.0000 C   0  0  0  0  0  0  0  0  0  0  0  0
    5.3125    2.7638    0.0000 C   0  0  0  0  0  0  0  0  0  0  0  0
    3.8971    3.2603    0.0000 C   0  0  0  0  0  0  0  0  0  0  0  0
    2.7594    2.2827    0.0000 C   0  0  0  0  0  0  0  0  0  0  0  0
    3.0372    0.8086    0.0000 C   0  0  0  0  0  0  0  0  0  0  0  0
  1  2  1  0
  2  3  1  0
  3  4  2  0
  4  5  1  0
  5  6  2  0
  5  7  1  0
  7  8  1  0
  9  8  1  6
  9 10  1  0
 10 11  1  0
 11 12  1  0
 12 13  1  0
 13 14  1  0
 14 15  1  0
 15 16  2  0
 16 17  1  0
 17 18  2  0
 18 19  1  0
 19 20  2  0
  4 21  1  0
 21 22  2  0
 22 23  1  0
 22 24  1  0
 24 25  2  0
 25 26  1  0
 26 27  2  0
 27 28  1  0
 28 29  2  0
 29  3  1  0
 13  9  1  0
 20 15  1  0
 29 24  1  0
M  END
>  <ChemBL_ID>  (704) 
CHEMBL53650

>  <Compound_Key>  (704) 
19

>  <Ki>  (704) 
222.0

>  <database>  (704) 
CHEMBL

>  <Assay_ChEMBL_ID>  (704) 
CHEMBL808906

>  <Document_ChEMBL_ID>  (704) 
CHEMBL1134687

$$$$

     RDKit          2D

 27 30  0  0  0  0  0  0  0  0999 V2000
    2.0142    2.9983    0.0000 C   0  0  0  0  0  0  0  0  0  0  0  0
    1.5994    1.5568    0.0000 O   0  0  0  0  0  0  0  0  0  0  0  0
    2.6404    0.4768    0.0000 C   0  0  0  0  0  0  0  0  0  0  0  0
    2.2256   -0.9647    0.0000 C   0  0  0  0  0  0  0  0  0  0  0  0
    0.7698   -1.3262    0.0000 C   0  0  0  0  0  0  0  0  0  0  0  0
    0.3550   -2.7677    0.0000 O   0  0  0  0  0  0  0  0  0  0  0  0
   -0.2712   -0.2462    0.0000 N   0  0  0  0  0  0  0  0  0  0  0  0
   -1.7270   -0.6078    0.0000 C   0  0  0  0  0  0  0  0  0  0  0  0
   -2.2902   -1.9980    0.0000 C   0  0  0  0  0  0  0  0  0  0  0  0
   -3.7864   -1.8920    0.0000 C   0  0  0  0  0  0  0  0  0  0  0  0
   -4.1479   -0.4362    0.0000 N   0  0  0  0  0  0  0  0  0  0  0  0
   -5.5382    0.1270    0.0000 C   0  0  0  0  0  0  0  0  0  0  0  0
   -5.7456    1.6126    0.0000 C   0  0  0  0  0  0  0  0  0  0  0  0
   -7.1358    2.1758    0.0000 C   0  0  0  0  0  0  0  0  0  0  0  0
   -8.3187    1.2534    0.0000 C   0  0  0  0  0  0  0  0  0  0  0  0
   -8.1113   -0.2322    0.0000 C   0  0  0  0  0  0  0  0  0  0  0  0
   -6.7211   -0.7954    0.0000 C   0  0  0  0  0  0  0  0  0  0  0  0
   -2.8751    0.3575    0.0000 C   0  0  0  0  0  0  0  0  0  0  0  0
    3.2666   -2.0447    0.0000 C   0  0  0  0  0  0  0  0  0  0  0  0
    4.7224   -1.6831    0.0000 C   0  0  0  0  0  0  0  0  0  0  0  0
    5.7633   -2.7631    0.0000 Br  0  0  0  0  0  0  0  0  0  0  0  0
    5.1372   -0.2416    0.0000 C   0  0  0  0  0  0  0  0  0  0  0  0
    6.5929    0.1199    0.0000 C   0  0  0  0  0  0  0  0  0  0  0  0
    7.0077    1.5614    0.0000 C   0  0  0  0  0  0  0  0  0  0  0  0
    5.9668    2.6414    0.0000 C   0  0  0  0  0  0  0  0  0  0  0  0
    4.5110    2.2798    0.0000 C   0  0  0  0  0  0  0  0  0  0  0  0
    4.0962    0.8383    0.0000 C   0  0  0  0  0  0  0  0  0  0  0  0
  1  2  1  0
  2  3  1  0
  3  4  2  0
  4  5  1  0
  5  6  2  0
  5  7  1  0
  8  7  1  6
  8  9  1  0
  9 10  1  0
 10 11  1  0
 11 12  1  0
 12 13  1  0
 13 14  1  0
 14 15  1  0
 15 16  1  0
 16 17  1  0
 11 18  1  0
  4 19  1  0
 19 20  2  0
 20 21  1  0
 20 22  1  0
 22 23  2  0
 23 24  1  0
 24 25  2  0
 25 26  1  0
 26 27  2  0
 27  3  1  0
 18  8  1  0
 27 22  1  0
 17 12  1  0
M  END
>  <ChemBL_ID>  (705) 
CHEMBL54026

>  <Compound_Key>  (705) 
15

>  <Ki>  (705) 
9.8

>  <database>  (705) 
CHEMBL

>  <Assay_ChEMBL_ID>  (705) 
CHEMBL808906

>  <Document_ChEMBL_ID>  (705) 
CHEMBL1134687

$$$$

     RDKit          2D

 26 29  0  0  0  0  0  0  0  0999 V2000
    1.7617    3.0101    0.0000 C   0  0  0  0  0  0  0  0  0  0  0  0
    1.3213    1.5762    0.0000 O   0  0  0  0  0  0  0  0  0  0  0  0
    2.3429    0.4779    0.0000 C   0  0  0  0  0  0  0  0  0  0  0  0
    1.9025   -0.9560    0.0000 C   0  0  0  0  0  0  0  0  0  0  0  0
    0.4405   -1.2915    0.0000 C   0  0  0  0  0  0  0  0  0  0  0  0
    0.0001   -2.7254    0.0000 O   0  0  0  0  0  0  0  0  0  0  0  0
   -0.5811   -0.1932    0.0000 N   0  0  0  0  0  0  0  0  0  0  0  0
   -2.0431   -0.5288    0.0000 C   0  0  0  0  0  0  0  0  0  0  0  0
   -2.6310   -1.9088    0.0000 C   0  0  0  0  0  0  0  0  0  0  0  0
   -4.1251   -1.7761    0.0000 C   0  0  0  0  0  0  0  0  0  0  0  0
   -4.4606   -0.3141    0.0000 N   0  0  0  0  0  0  0  0  0  0  0  0
   -5.8406    0.2737    0.0000 C   0  0  0  0  0  0  0  0  0  0  0  0
   -7.1274   -0.4972    0.0000 C   0  0  0  0  0  0  0  0  0  0  0  0
   -8.2582    0.4884    0.0000 C   0  0  0  0  0  0  0  0  0  0  0  0
   -7.6703    1.8684    0.0000 C   0  0  0  0  0  0  0  0  0  0  0  0
   -6.1762    1.7357    0.0000 C   0  0  0  0  0  0  0  0  0  0  0  0
   -3.1739    0.4568    0.0000 C   0  0  0  0  0  0  0  0  0  0  0  0
    2.9241   -2.0543    0.0000 C   0  0  0  0  0  0  0  0  0  0  0  0
    4.3860   -1.7188    0.0000 C   0  0  0  0  0  0  0  0  0  0  0  0
    5.4076   -2.8171    0.0000 Br  0  0  0  0  0  0  0  0  0  0  0  0
    4.8264   -0.2849    0.0000 C   0  0  0  0  0  0  0  0  0  0  0  0
    6.2884    0.0507    0.0000 C   0  0  0  0  0  0  0  0  0  0  0  0
    6.7288    1.4846    0.0000 C   0  0  0  0  0  0  0  0  0  0  0  0
    5.7072    2.5829    0.0000 C   0  0  0  0  0  0  0  0  0  0  0  0
    4.2452    2.2473    0.0000 C   0  0  0  0  0  0  0  0  0  0  0  0
    3.8048    0.8135    0.0000 C   0  0  0  0  0  0  0  0  0  0  0  0
  1  2  1  0
  2  3  1  0
  3  4  2  0
  4  5  1  0
  5  6  2  0
  5  7  1  0
  8  7  1  1
  8  9  1  0
  9 10  1  0
 10 11  1  0
 11 12  1  0
 12 13  1  0
 13 14  1  0
 14 15  1  0
 15 16  1  0
 11 17  1  0
  4 18  1  0
 18 19  2  0
 19 20  1  0
 19 21  1  0
 21 22  2  0
 22 23  1  0
 23 24  2  0
 24 25  1  0
 25 26  2  0
 26  3  1  0
 17  8  1  0
 26 21  1  0
 16 12  1  0
M  END
>  <ChemBL_ID>  (706) 
CHEMBL53778

>  <Compound_Key>  (706) 
8

>  <Ki>  (706) 
27.0

>  <database>  (706) 
CHEMBL

>  <Assay_ChEMBL_ID>  (706) 
CHEMBL808906

>  <Document_ChEMBL_ID>  (706) 
CHEMBL1134687

$$$$

     RDKit          2D

 30 33  0  0  0  0  0  0  0  0999 V2000
   -6.2431   -2.4833    0.0000 C   0  0  0  0  0  0  0  0  0  0  0  0
   -4.7455   -2.3974    0.0000 O   0  0  0  0  0  0  0  0  0  0  0  0
   -4.0711   -1.0575    0.0000 C   0  0  0  0  0  0  0  0  0  0  0  0
   -4.8943    0.1964    0.0000 C   0  0  0  0  0  0  0  0  0  0  0  0
   -4.2199    1.5363    0.0000 C   0  0  0  0  0  0  0  0  0  0  0  0
   -5.0430    2.7902    0.0000 I   0  0  0  0  0  0  0  0  0  0  0  0
   -2.7223    1.6221    0.0000 C   0  0  0  0  0  0  0  0  0  0  0  0
   -1.8992    0.3682    0.0000 C   0  0  0  0  0  0  0  0  0  0  0  0
   -0.4017    0.4541    0.0000 C   0  0  0  0  0  0  0  0  0  0  0  0
    0.2727    1.7939    0.0000 O   0  0  0  0  0  0  0  0  0  0  0  0
    0.4215   -0.7999    0.0000 N   0  0  0  0  0  0  0  0  0  0  0  0
    1.9190   -0.7140    0.0000 C   0  0  0  0  0  0  0  0  0  0  0  0
    2.7422   -1.9680    0.0000 C   0  0  0  0  0  0  0  0  0  0  0  0
    4.2397   -1.8821    0.0000 C   0  0  0  0  0  0  0  0  0  0  0  0
    5.7373   -1.7962    0.0000 C   0  0  0  0  0  0  0  0  0  0  0  0
    6.4116   -0.4564    0.0000 C   0  0  0  0  0  0  0  0  0  0  0  0
    5.5885    0.7976    0.0000 C   0  0  0  0  0  0  0  0  0  0  0  0
    4.0910    0.7117    0.0000 C   0  0  0  0  0  0  0  0  0  0  0  0
    2.5934    0.6258    0.0000 C   0  0  0  0  0  0  0  0  0  0  0  0
    3.4166   -0.6281    0.0000 N   0  0  0  0  0  0  0  0  0  0  0  0
    1.9190   -0.7140    0.0000 C   0  0  0  0  0  0  0  0  0  0  0  0
    1.0959    0.5399    0.0000 C   0  0  0  0  0  0  0  0  0  0  0  0
    1.7703    1.8798    0.0000 C   0  0  0  0  0  0  0  0  0  0  0  0
    0.9471    3.1338    0.0000 C   0  0  0  0  0  0  0  0  0  0  0  0
   -0.5504    3.0479    0.0000 C   0  0  0  0  0  0  0  0  0  0  0  0
   -1.2248    1.7080    0.0000 C   0  0  0  0  0  0  0  0  0  0  0  0
   -0.4017    0.4541    0.0000 C   0  0  0  0  0  0  0  0  0  0  0  0
   -2.5736   -0.9717    0.0000 C   0  0  0  0  0  0  0  0  0  0  0  0
   -1.7504   -2.2256    0.0000 O   0  0  0  0  0  0  0  0  0  0  0  0
   -2.4248   -3.5655    0.0000 C   0  0  0  0  0  0  0  0  0  0  0  0
  1  2  1  0
  2  3  1  0
  3  4  2  0
  4  5  1  0
  5  6  1  0
  5  7  2  0
  7  8  1  0
  8  9  1  0
  9 10  2  0
  9 11  1  0
 11 12  1  0
 12 13  1  0
 13 14  1  0
 14 15  1  0
 15 16  1  0
 16 17  1  0
 17 18  1  0
 18 19  1  0
 18 20  1  0
 20 21  1  0
 21 22  1  0
 22 23  2  0
 23 24  1  0
 24 25  2  0
 25 26  1  0
 26 27  2  0
  8 28  2  0
 28 29  1  0
 29 30  1  0
 28  3  1  0
 19 12  1  0
 27 22  1  0
 20 14  1  0
M  END
>  <ChemBL_ID>  (707) 
CHEMBL54866

>  <Compound_Key>  (707) 
IABN

>  <Ki>  (707) 
419.0

>  <database>  (707) 
CHEMBL

>  <Assay_ChEMBL_ID>  (707) 
CHEMBL808906

>  <Document_ChEMBL_ID>  (707) 
CHEMBL1134687

$$$$

     RDKit          2D

 28 31  0  0  0  0  0  0  0  0999 V2000
    2.2678    2.9883    0.0000 C   0  0  0  0  0  0  0  0  0  0  0  0
    1.8757    1.5405    0.0000 O   0  0  0  0  0  0  0  0  0  0  0  0
    2.9336    0.4770    0.0000 C   0  0  0  0  0  0  0  0  0  0  0  0
    2.5416   -0.9708    0.0000 C   0  0  0  0  0  0  0  0  0  0  0  0
    1.0917   -1.3553    0.0000 C   0  0  0  0  0  0  0  0  0  0  0  0
    0.6997   -2.8031    0.0000 O   0  0  0  0  0  0  0  0  0  0  0  0
    0.0338   -0.2918    0.0000 N   0  0  0  0  0  0  0  0  0  0  0  0
   -1.4161   -0.6763    0.0000 C   0  0  0  0  0  0  0  0  0  0  0  0
   -1.9573   -2.0753    0.0000 C   0  0  0  0  0  0  0  0  0  0  0  0
   -3.4550   -1.9928    0.0000 C   0  0  0  0  0  0  0  0  0  0  0  0
   -3.8394   -0.5429    0.0000 N   0  0  0  0  0  0  0  0  0  0  0  0
   -5.2384   -0.0017    0.0000 C   0  0  0  0  0  0  0  0  0  0  0  0
   -6.3330   -1.0273    0.0000 C   0  0  0  0  0  0  0  0  0  0  0  0
   -7.8173   -0.8110    0.0000 C   0  0  0  0  0  0  0  0  0  0  0  0
   -8.5736    0.4844    0.0000 C   0  0  0  0  0  0  0  0  0  0  0  0
   -8.0324    1.8833    0.0000 C   0  0  0  0  0  0  0  0  0  0  0  0
   -6.6012    2.3324    0.0000 C   0  0  0  0  0  0  0  0  0  0  0  0
   -5.3578    1.4935    0.0000 C   0  0  0  0  0  0  0  0  0  0  0  0
   -2.5793    0.2707    0.0000 C   0  0  0  0  0  0  0  0  0  0  0  0
    3.5995   -2.0342    0.0000 C   0  0  0  0  0  0  0  0  0  0  0  0
    5.0494   -1.6498    0.0000 C   0  0  0  0  0  0  0  0  0  0  0  0
    6.1073   -2.7132    0.0000 Br  0  0  0  0  0  0  0  0  0  0  0  0
    5.4414   -0.2019    0.0000 C   0  0  0  0  0  0  0  0  0  0  0  0
    6.8913    0.1825    0.0000 C   0  0  0  0  0  0  0  0  0  0  0  0
    7.2833    1.6304    0.0000 C   0  0  0  0  0  0  0  0  0  0  0  0
    6.2254    2.6938    0.0000 C   0  0  0  0  0  0  0  0  0  0  0  0
    4.7755    2.3094    0.0000 C   0  0  0  0  0  0  0  0  0  0  0  0
    4.3835    0.8615    0.0000 C   0  0  0  0  0  0  0  0  0  0  0  0
  1  2  1  0
  2  3  1  0
  3  4  2  0
  4  5  1  0
  5  6  2  0
  5  7  1  0
  8  7  1  1
  8  9  1  0
  9 10  1  0
 10 11  1  0
 11 12  1  0
 12 13  1  0
 13 14  1  0
 14 15  1  0
 15 16  1  0
 16 17  1  0
 17 18  1  0
 11 19  1  0
  4 20  1  0
 20 21  2  0
 21 22  1  0
 21 23  1  0
 23 24  2  0
 24 25  1  0
 25 26  2  0
 26 27  1  0
 27 28  2  0
 28  3  1  0
 19  8  1  0
 28 23  1  0
 18 12  1  0
M  END
>  <ChemBL_ID>  (708) 
CHEMBL54667

>  <Compound_Key>  (708) 
10

>  <Ki>  (708) 
17.0

>  <database>  (708) 
CHEMBL

>  <Assay_ChEMBL_ID>  (708) 
CHEMBL808906

>  <Document_ChEMBL_ID>  (708) 
CHEMBL1134687

$$$$

     RDKit          2D

 31 36  0  0  0  0  0  0  0  0999 V2000
    3.0863    2.9972    0.0000 C   0  0  0  0  0  0  0  0  0  0  0  0
    2.6499    1.5621    0.0000 O   0  0  0  0  0  0  0  0  0  0  0  0
    3.6745    0.4666    0.0000 C   0  0  0  0  0  0  0  0  0  0  0  0
    3.2380   -0.9685    0.0000 C   0  0  0  0  0  0  0  0  0  0  0  0
    1.7769   -1.3081    0.0000 C   0  0  0  0  0  0  0  0  0  0  0  0
    1.3405   -2.7432    0.0000 O   0  0  0  0  0  0  0  0  0  0  0  0
    0.7523   -0.2125    0.0000 N   0  0  0  0  0  0  0  0  0  0  0  0
   -0.7087   -0.5521    0.0000 C   0  0  0  0  0  0  0  0  0  0  0  0
   -1.2928   -1.9337    0.0000 C   0  0  0  0  0  0  0  0  0  0  0  0
   -2.7873   -1.8051    0.0000 C   0  0  0  0  0  0  0  0  0  0  0  0
   -3.1268   -0.3441    0.0000 N   0  0  0  0  0  0  0  0  0  0  0  0
   -4.5084    0.2400    0.0000 C   0  0  0  0  0  0  0  0  0  0  0  0
   -5.7051   -0.6645    0.0000 C   0  0  0  0  0  0  0  0  0  0  0  0
   -5.8901    0.8241    0.0000 C   0  0  0  0  0  0  0  0  0  0  0  0
   -7.2717    1.4082    0.0000 C   0  0  0  0  0  0  0  0  0  0  0  0
   -8.4683    0.5037    0.0000 C   0  0  0  0  0  0  0  0  0  0  0  0
   -8.2833   -0.9848    0.0000 C   0  0  0  0  0  0  0  0  0  0  0  0
   -5.2775    0.3469    0.0000 C   0  0  0  0  0  0  0  0  0  0  0  0
   -4.6934    1.7286    0.0000 C   0  0  0  0  0  0  0  0  0  0  0  0
   -6.0750    2.3126    0.0000 C   0  0  0  0  0  0  0  0  0  0  0  0
   -6.9017   -1.5689    0.0000 C   0  0  0  0  0  0  0  0  0  0  0  0
   -1.8422    0.4303    0.0000 C   0  0  0  0  0  0  0  0  0  0  0  0
    4.2626   -2.0641    0.0000 C   0  0  0  0  0  0  0  0  0  0  0  0
    5.7237   -1.7245    0.0000 C   0  0  0  0  0  0  0  0  0  0  0  0
    6.7482   -2.8201    0.0000 Br  0  0  0  0  0  0  0  0  0  0  0  0
    6.1601   -0.2894    0.0000 C   0  0  0  0  0  0  0  0  0  0  0  0
    7.6212    0.0501    0.0000 C   0  0  0  0  0  0  0  0  0  0  0  0
    8.0577    1.4852    0.0000 C   0  0  0  0  0  0  0  0  0  0  0  0
    7.0331    2.5808    0.0000 C   0  0  0  0  0  0  0  0  0  0  0  0
    5.5720    2.2412    0.0000 C   0  0  0  0  0  0  0  0  0  0  0  0
    5.1355    0.8061    0.0000 C   0  0  0  0  0  0  0  0  0  0  0  0
  1  2  1  0
  2  3  1  0
  3  4  2  0
  4  5  1  0
  5  6  2  0
  5  7  1  0
  8  7  1  1
  8  9  1  0
  9 10  1  0
 10 11  1  0
 11 12  1  0
 12 13  1  0
 13 14  1  1
 15 14  1  1
 15 16  1  0
 17 16  1  1
 17 18  1  0
 19 18  1  6
 19 20  1  0
 17 21  1  0
 11 22  1  0
  4 23  1  0
 23 24  2  0
 24 25  1  0
 24 26  1  0
 26 27  2  0
 27 28  1  0
 28 29  2  0
 29 30  1  0
 30 31  2  0
 31  3  1  0
 22  8  1  0
 31 26  1  0
 19 12  1  0
 21 13  1  0
 20 15  1  0
M  END
>  <ChemBL_ID>  (709) 
CHEMBL52298

>  <Compound_Key>  (709) 
12

>  <Ki>  (709) 
70.0

>  <database>  (709) 
CHEMBL

>  <Assay_ChEMBL_ID>  (709) 
CHEMBL808906

>  <Document_ChEMBL_ID>  (709) 
CHEMBL1134687

$$$$

     RDKit          2D

 31 35  0  0  0  0  0  0  0  0999 V2000
    3.4144    3.1253    0.0000 C   0  0  0  0  0  0  0  0  0  0  0  0
    2.7368    1.7871    0.0000 O   0  0  0  0  0  0  0  0  0  0  0  0
    3.5569    0.5311    0.0000 C   0  0  0  0  0  0  0  0  0  0  0  0
    2.8792   -0.8071    0.0000 C   0  0  0  0  0  0  0  0  0  0  0  0
    1.3815   -0.8894    0.0000 C   0  0  0  0  0  0  0  0  0  0  0  0
    0.7039   -2.2276    0.0000 O   0  0  0  0  0  0  0  0  0  0  0  0
    0.5614    0.3666    0.0000 N   0  0  0  0  0  0  0  0  0  0  0  0
   -0.9364    0.2843    0.0000 C   0  0  0  0  0  0  0  0  0  0  0  0
   -1.7565    1.5403    0.0000 C   0  0  0  0  0  0  0  0  0  0  0  0
   -3.2542    1.4580    0.0000 C   0  0  0  0  0  0  0  0  0  0  0  0
   -3.9318    0.1198    0.0000 N   0  0  0  0  0  0  0  0  0  0  0  0
   -5.4296    0.0375    0.0000 C   0  0  0  0  0  0  0  0  0  0  0  0
   -6.2497    1.2935    0.0000 C   0  0  0  0  0  0  0  0  0  0  0  0
   -7.7474    1.2112    0.0000 C   0  0  0  0  0  0  0  0  0  0  0  0
   -8.4251   -0.1270    0.0000 C   0  0  0  0  0  0  0  0  0  0  0  0
   -7.6050   -1.3830    0.0000 C   0  0  0  0  0  0  0  0  0  0  0  0
   -6.1072   -1.3007    0.0000 C   0  0  0  0  0  0  0  0  0  0  0  0
   -4.6095   -1.2184    0.0000 C   0  0  0  0  0  0  0  0  0  0  0  0
   -3.9318    0.1198    0.0000 C   0  0  0  0  0  0  0  0  0  0  0  0
   -4.7520    1.3757    0.0000 C   0  0  0  0  0  0  0  0  0  0  0  0
   -3.1117   -1.1362    0.0000 C   0  0  0  0  0  0  0  0  0  0  0  0
   -1.6140   -1.0539    0.0000 C   0  0  0  0  0  0  0  0  0  0  0  0
    3.6994   -2.0631    0.0000 C   0  0  0  0  0  0  0  0  0  0  0  0
    5.1971   -1.9808    0.0000 C   0  0  0  0  0  0  0  0  0  0  0  0
    6.0172   -3.2367    0.0000 Br  0  0  0  0  0  0  0  0  0  0  0  0
    5.8747   -0.6426    0.0000 C   0  0  0  0  0  0  0  0  0  0  0  0
    7.3725   -0.5603    0.0000 C   0  0  0  0  0  0  0  0  0  0  0  0
    8.0501    0.7779    0.0000 C   0  0  0  0  0  0  0  0  0  0  0  0
    7.2300    2.0339    0.0000 C   0  0  0  0  0  0  0  0  0  0  0  0
    5.7322    1.9516    0.0000 C   0  0  0  0  0  0  0  0  0  0  0  0
    5.0546    0.6134    0.0000 C   0  0  0  0  0  0  0  0  0  0  0  0
  1  2  1  0
  2  3  1  0
  3  4  2  0
  4  5  1  0
  5  6  2  0
  5  7  1  0
  7  8  1  0
  8  9  1  0
  9 10  1  0
 10 11  1  0
 11 12  1  0
 12 13  1  0
 13 14  1  0
 14 15  1  0
 15 16  1  0
 16 17  1  0
 17 18  1  0
 18 19  1  0
 19 20  1  0
 11 21  1  0
 21 22  1  0
  4 23  1  0
 23 24  2  0
 24 25  1  0
 24 26  1  0
 26 27  2  0
 27 28  1  0
 28 29  2  0
 29 30  1  0
 30 31  2  0
 31  3  1  0
 22  8  1  0
 31 26  1  0
 17 12  1  0
 20 13  1  0
M  END
>  <ChemBL_ID>  (710) 
CHEMBL53401

>  <Compound_Key>  (710) 
5

>  <Ki>  (710) 
2.4

>  <database>  (710) 
CHEMBL

>  <Assay_ChEMBL_ID>  (710) 
CHEMBL808906

>  <Document_ChEMBL_ID>  (710) 
CHEMBL1134687

$$$$

     RDKit          2D

 29 32  0  0  0  0  0  0  0  0999 V2000
    2.7466    2.9271    0.0000 C   0  0  0  0  0  0  0  0  0  0  0  0
    2.0701    1.5884    0.0000 O   0  0  0  0  0  0  0  0  0  0  0  0
    2.8913    0.3331    0.0000 C   0  0  0  0  0  0  0  0  0  0  0  0
    2.2148   -1.0057    0.0000 C   0  0  0  0  0  0  0  0  0  0  0  0
    0.7171   -1.0892    0.0000 C   0  0  0  0  0  0  0  0  0  0  0  0
    0.0406   -2.4280    0.0000 O   0  0  0  0  0  0  0  0  0  0  0  0
   -0.1041    0.1661    0.0000 N   0  0  0  0  0  0  0  0  0  0  0  0
   -1.6017    0.0825    0.0000 C   0  0  0  0  0  0  0  0  0  0  0  0
   -2.4229    1.3378    0.0000 C   0  0  0  0  0  0  0  0  0  0  0  0
   -1.8900    2.7400    0.0000 C   0  0  0  0  0  0  0  0  0  0  0  0
   -3.0589    3.6800    0.0000 C   0  0  0  0  0  0  0  0  0  0  0  0
   -4.3142    2.8589    0.0000 C   0  0  0  0  0  0  0  0  0  0  0  0
   -3.9211    1.4113    0.0000 N   0  0  0  0  0  0  0  0  0  0  0  0
   -4.8612    0.2424    0.0000 C   0  0  0  0  0  0  0  0  0  0  0  0
   -4.2159   -1.1117    0.0000 C   0  0  0  0  0  0  0  0  0  0  0  0
   -4.8723   -2.4605    0.0000 C   0  0  0  0  0  0  0  0  0  0  0  0
   -6.3361   -2.7882    0.0000 C   0  0  0  0  0  0  0  0  0  0  0  0
   -7.5050   -1.8481    0.0000 C   0  0  0  0  0  0  0  0  0  0  0  0
   -7.4988   -0.3481    0.0000 C   0  0  0  0  0  0  0  0  0  0  0  0
   -6.3222    0.5822    0.0000 C   0  0  0  0  0  0  0  0  0  0  0  0
    3.0359   -2.2610    0.0000 C   0  0  0  0  0  0  0  0  0  0  0  0
    4.5336   -2.1774    0.0000 C   0  0  0  0  0  0  0  0  0  0  0  0
    5.3548   -3.4327    0.0000 Br  0  0  0  0  0  0  0  0  0  0  0  0
    5.2101   -0.8387    0.0000 C   0  0  0  0  0  0  0  0  0  0  0  0
    6.7078   -0.7551    0.0000 C   0  0  0  0  0  0  0  0  0  0  0  0
    7.3843    0.5836    0.0000 C   0  0  0  0  0  0  0  0  0  0  0  0
    6.5631    1.8389    0.0000 C   0  0  0  0  0  0  0  0  0  0  0  0
    5.0655    1.7554    0.0000 C   0  0  0  0  0  0  0  0  0  0  0  0
    4.3889    0.4166    0.0000 C   0  0  0  0  0  0  0  0  0  0  0  0
  1  2  1  0
  2  3  1  0
  3  4  2  0
  4  5  1  0
  5  6  2  0
  5  7  1  0
  7  8  1  0
  9  8  1  1
  9 10  1  0
 10 11  1  0
 11 12  1  0
 12 13  1  0
 13 14  1  0
 14 15  1  0
 15 16  1  0
 16 17  1  0
 17 18  1  0
 18 19  1  0
 19 20  1  0
  4 21  1  0
 21 22  2  0
 22 23  1  0
 22 24  1  0
 24 25  2  0
 25 26  1  0
 26 27  2  0
 27 28  1  0
 28 29  2  0
 29  3  1  0
 13  9  1  0
 20 14  1  0
 29 24  1  0
M  END
>  <ChemBL_ID>  (711) 
CHEMBL301732

>  <Compound_Key>  (711) 
23

>  <Ki>  (711) 
44.0

>  <database>  (711) 
CHEMBL

>  <Assay_ChEMBL_ID>  (711) 
CHEMBL808906

>  <Document_ChEMBL_ID>  (711) 
CHEMBL1134687

$$$$

     RDKit          2D

 26 29  0  0  0  0  0  0  0  0999 V2000
    1.7617    3.0101    0.0000 C   0  0  0  0  0  0  0  0  0  0  0  0
    1.3213    1.5762    0.0000 O   0  0  0  0  0  0  0  0  0  0  0  0
    2.3429    0.4779    0.0000 C   0  0  0  0  0  0  0  0  0  0  0  0
    1.9025   -0.9560    0.0000 C   0  0  0  0  0  0  0  0  0  0  0  0
    0.4405   -1.2915    0.0000 C   0  0  0  0  0  0  0  0  0  0  0  0
    0.0001   -2.7254    0.0000 O   0  0  0  0  0  0  0  0  0  0  0  0
   -0.5811   -0.1932    0.0000 N   0  0  0  0  0  0  0  0  0  0  0  0
   -2.0431   -0.5288    0.0000 C   0  0  0  0  0  0  0  0  0  0  0  0
   -2.6310   -1.9088    0.0000 C   0  0  0  0  0  0  0  0  0  0  0  0
   -4.1251   -1.7761    0.0000 C   0  0  0  0  0  0  0  0  0  0  0  0
   -4.4606   -0.3141    0.0000 N   0  0  0  0  0  0  0  0  0  0  0  0
   -5.8406    0.2737    0.0000 C   0  0  0  0  0  0  0  0  0  0  0  0
   -7.1274   -0.4972    0.0000 C   0  0  0  0  0  0  0  0  0  0  0  0
   -8.2582    0.4884    0.0000 C   0  0  0  0  0  0  0  0  0  0  0  0
   -7.6703    1.8684    0.0000 C   0  0  0  0  0  0  0  0  0  0  0  0
   -6.1762    1.7357    0.0000 C   0  0  0  0  0  0  0  0  0  0  0  0
   -3.1739    0.4568    0.0000 C   0  0  0  0  0  0  0  0  0  0  0  0
    2.9241   -2.0543    0.0000 C   0  0  0  0  0  0  0  0  0  0  0  0
    4.3860   -1.7188    0.0000 C   0  0  0  0  0  0  0  0  0  0  0  0
    5.4076   -2.8171    0.0000 Br  0  0  0  0  0  0  0  0  0  0  0  0
    4.8264   -0.2849    0.0000 C   0  0  0  0  0  0  0  0  0  0  0  0
    6.2884    0.0507    0.0000 C   0  0  0  0  0  0  0  0  0  0  0  0
    6.7288    1.4846    0.0000 C   0  0  0  0  0  0  0  0  0  0  0  0
    5.7072    2.5829    0.0000 C   0  0  0  0  0  0  0  0  0  0  0  0
    4.2452    2.2473    0.0000 C   0  0  0  0  0  0  0  0  0  0  0  0
    3.8048    0.8135    0.0000 C   0  0  0  0  0  0  0  0  0  0  0  0
  1  2  1  0
  2  3  1  0
  3  4  2  0
  4  5  1  0
  5  6  2  0
  5  7  1  0
  8  7  1  6
  8  9  1  0
  9 10  1  0
 10 11  1  0
 11 12  1  0
 12 13  1  0
 13 14  1  0
 14 15  1  0
 15 16  1  0
 11 17  1  0
  4 18  1  0
 18 19  2  0
 19 20  1  0
 19 21  1  0
 21 22  2  0
 22 23  1  0
 23 24  2  0
 24 25  1  0
 25 26  2  0
 26  3  1  0
 17  8  1  0
 26 21  1  0
 16 12  1  0
M  END
>  <ChemBL_ID>  (712) 
CHEMBL54027

>  <Compound_Key>  (712) 
14

>  <Ki>  (712) 
15.3

>  <database>  (712) 
CHEMBL

>  <Assay_ChEMBL_ID>  (712) 
CHEMBL808906

>  <Document_ChEMBL_ID>  (712) 
CHEMBL1134687

$$$$

     RDKit          2D

 26 29  0  0  0  0  0  0  0  0999 V2000
    0.2506    2.3420    0.0000 C   0  0  0  0  0  0  0  0  0  0  0  0
    0.0871    0.8509    0.0000 O   0  0  0  0  0  0  0  0  0  0  0  0
    1.2966   -0.0362    0.0000 C   0  0  0  0  0  0  0  0  0  0  0  0
    1.1332   -1.5272    0.0000 C   0  0  0  0  0  0  0  0  0  0  0  0
   -0.2399   -2.1312    0.0000 C   0  0  0  0  0  0  0  0  0  0  0  0
   -0.4034   -3.6223    0.0000 O   0  0  0  0  0  0  0  0  0  0  0  0
   -1.4494   -1.2441    0.0000 N   0  0  0  0  0  0  0  0  0  0  0  0
   -2.8225   -1.8480    0.0000 C   0  0  0  0  0  0  0  0  0  0  0  0
   -4.0320   -0.9609    0.0000 C   0  0  0  0  0  0  0  0  0  0  0  0
   -5.4607   -1.4180    0.0000 C   0  0  0  0  0  0  0  0  0  0  0  0
   -6.3369   -0.2006    0.0000 C   0  0  0  0  0  0  0  0  0  0  0  0
   -5.4498    1.0090    0.0000 C   0  0  0  0  0  0  0  0  0  0  0  0
   -4.0253    0.5391    0.0000 N   0  0  0  0  0  0  0  0  0  0  0  0
   -2.8078    1.4153    0.0000 C   0  0  0  0  0  0  0  0  0  0  0  0
   -1.3274    1.1740    0.0000 C   0  0  0  0  0  0  0  0  0  0  0  0
   -1.0861    2.6545    0.0000 C   0  0  0  0  0  0  0  0  0  0  0  0
   -2.5665    2.8958    0.0000 C   0  0  0  0  0  0  0  0  0  0  0  0
    2.3427   -2.4144    0.0000 C   0  0  0  0  0  0  0  0  0  0  0  0
    3.7158   -1.8104    0.0000 C   0  0  0  0  0  0  0  0  0  0  0  0
    4.9253   -2.6975    0.0000 Br  0  0  0  0  0  0  0  0  0  0  0  0
    3.8792   -0.3193    0.0000 C   0  0  0  0  0  0  0  0  0  0  0  0
    5.2523    0.2846    0.0000 C   0  0  0  0  0  0  0  0  0  0  0  0
    5.4158    1.7757    0.0000 C   0  0  0  0  0  0  0  0  0  0  0  0
    4.2062    2.6628    0.0000 C   0  0  0  0  0  0  0  0  0  0  0  0
    2.8332    2.0588    0.0000 C   0  0  0  0  0  0  0  0  0  0  0  0
    2.6697    0.5678    0.0000 C   0  0  0  0  0  0  0  0  0  0  0  0
  1  2  1  0
  2  3  1  0
  3  4  2  0
  4  5  1  0
  5  6  2  0
  5  7  1  0
  7  8  1  0
  9  8  1  1
  9 10  1  0
 10 11  1  0
 11 12  1  0
 12 13  1  0
 13 14  1  0
 14 15  1  0
 15 16  1  0
 16 17  1  0
  4 18  1  0
 18 19  2  0
 19 20  1  0
 19 21  1  0
 21 22  2  0
 22 23  1  0
 23 24  2  0
 24 25  1  0
 25 26  2  0
 26  3  1  0
 13  9  1  0
 17 14  1  0
 26 21  1  0
M  END
>  <ChemBL_ID>  (713) 
CHEMBL50517

>  <Compound_Key>  (713) 
27

>  <Ki>  (713) 
95.0

>  <database>  (713) 
CHEMBL

>  <Assay_ChEMBL_ID>  (713) 
CHEMBL808906

>  <Document_ChEMBL_ID>  (713) 
CHEMBL1134687

$$$$

     RDKit          2D

 28 31  0  0  0  0  0  0  0  0999 V2000
    1.5452    2.7863    0.0000 C   0  0  0  0  0  0  0  0  0  0  0  0
    1.3855    1.2948    0.0000 O   0  0  0  0  0  0  0  0  0  0  0  0
    2.5972    0.4108    0.0000 C   0  0  0  0  0  0  0  0  0  0  0  0
    2.4375   -1.0807    0.0000 C   0  0  0  0  0  0  0  0  0  0  0  0
    1.0659   -1.6881    0.0000 C   0  0  0  0  0  0  0  0  0  0  0  0
    0.9062   -3.1796    0.0000 O   0  0  0  0  0  0  0  0  0  0  0  0
   -0.1458   -0.8040    0.0000 N   0  0  0  0  0  0  0  0  0  0  0  0
   -1.5174   -1.4114    0.0000 C   0  0  0  0  0  0  0  0  0  0  0  0
   -1.8321   -2.8780    0.0000 C   0  0  0  0  0  0  0  0  0  0  0  0
   -3.3242   -3.0318    0.0000 C   0  0  0  0  0  0  0  0  0  0  0  0
   -3.9316   -1.6603    0.0000 N   0  0  0  0  0  0  0  0  0  0  0  0
   -5.3982   -1.3455    0.0000 C   0  0  0  0  0  0  0  0  0  0  0  0
   -5.8589    0.0820    0.0000 C   0  0  0  0  0  0  0  0  0  0  0  0
   -4.8530    1.1947    0.0000 C   0  0  0  0  0  0  0  0  0  0  0  0
   -5.3137    2.6222    0.0000 C   0  0  0  0  0  0  0  0  0  0  0  0
   -6.7803    2.9370    0.0000 C   0  0  0  0  0  0  0  0  0  0  0  0
   -7.7862    1.8243    0.0000 C   0  0  0  0  0  0  0  0  0  0  0  0
   -7.3255    0.3968    0.0000 C   0  0  0  0  0  0  0  0  0  0  0  0
   -2.8149   -0.6588    0.0000 C   0  0  0  0  0  0  0  0  0  0  0  0
    3.6492   -1.9648    0.0000 C   0  0  0  0  0  0  0  0  0  0  0  0
    5.0208   -1.3574    0.0000 C   0  0  0  0  0  0  0  0  0  0  0  0
    6.2325   -2.2415    0.0000 Br  0  0  0  0  0  0  0  0  0  0  0  0
    5.1805    0.1341    0.0000 C   0  0  0  0  0  0  0  0  0  0  0  0
    6.5521    0.7414    0.0000 C   0  0  0  0  0  0  0  0  0  0  0  0
    6.7118    2.2329    0.0000 C   0  0  0  0  0  0  0  0  0  0  0  0
    5.5000    3.1170    0.0000 C   0  0  0  0  0  0  0  0  0  0  0  0
    4.1285    2.5096    0.0000 C   0  0  0  0  0  0  0  0  0  0  0  0
    3.9688    1.0181    0.0000 C   0  0  0  0  0  0  0  0  0  0  0  0
  1  2  1  0
  2  3  1  0
  3  4  2  0
  4  5  1  0
  5  6  2  0
  5  7  1  0
  8  7  1  6
  8  9  1  0
  9 10  1  0
 10 11  1  0
 11 12  1  0
 12 13  1  0
 13 14  2  0
 14 15  1  0
 15 16  2  0
 16 17  1  0
 17 18  2  0
 11 19  1  0
  4 20  1  0
 20 21  2  0
 21 22  1  0
 21 23  1  0
 23 24  2  0
 24 25  1  0
 25 26  2  0
 26 27  1  0
 27 28  2  0
 28  3  1  0
 19  8  1  0
 28 23  1  0
 18 13  1  0
M  END
>  <ChemBL_ID>  (714) 
CHEMBL298875

>  <Compound_Key>  (714) 
13

>  <Ki>  (714) 
20.8

>  <database>  (714) 
CHEMBL

>  <Assay_ChEMBL_ID>  (714) 
CHEMBL808906

>  <Document_ChEMBL_ID>  (714) 
CHEMBL1134687

$$$$

     RDKit          2D

 31 35  0  0  0  0  0  0  0  0999 V2000
    0.5447    2.1129    0.0000 C   0  0  0  0  0  0  0  0  0  0  0  0
    0.4616    0.6152    0.0000 O   0  0  0  0  0  0  0  0  0  0  0  0
    1.7170   -0.2056    0.0000 C   0  0  0  0  0  0  0  0  0  0  0  0
    1.6339   -1.7033    0.0000 C   0  0  0  0  0  0  0  0  0  0  0  0
    0.2954   -2.3801    0.0000 C   0  0  0  0  0  0  0  0  0  0  0  0
    0.2122   -3.8778    0.0000 O   0  0  0  0  0  0  0  0  0  0  0  0
   -0.9601   -1.5593    0.0000 N   0  0  0  0  0  0  0  0  0  0  0  0
   -2.2987   -2.2362    0.0000 C   0  0  0  0  0  0  0  0  0  0  0  0
   -3.5542   -1.4154    0.0000 C   0  0  0  0  0  0  0  0  0  0  0  0
   -4.9562   -1.9486    0.0000 C   0  0  0  0  0  0  0  0  0  0  0  0
   -5.8966   -0.7800    0.0000 C   0  0  0  0  0  0  0  0  0  0  0  0
   -5.0758    0.4755    0.0000 C   0  0  0  0  0  0  0  0  0  0  0  0
   -3.6281    0.0828    0.0000 N   0  0  0  0  0  0  0  0  0  0  0  0
   -2.4595    1.0232    0.0000 C   0  0  0  0  0  0  0  0  0  0  0  0
   -1.0608    0.4813    0.0000 C   0  0  0  0  0  0  0  0  0  0  0  0
    0.1078    1.4217    0.0000 C   0  0  0  0  0  0  0  0  0  0  0  0
   -0.1223    2.9040    0.0000 C   0  0  0  0  0  0  0  0  0  0  0  0
   -1.5210    3.4458    0.0000 C   0  0  0  0  0  0  0  0  0  0  0  0
   -2.6896    2.5054    0.0000 C   0  0  0  0  0  0  0  0  0  0  0  0
   -3.8582    1.5650    0.0000 C   0  0  0  0  0  0  0  0  0  0  0  0
   -3.6281    0.0828    0.0000 C   0  0  0  0  0  0  0  0  0  0  0  0
   -2.2294   -0.4591    0.0000 C   0  0  0  0  0  0  0  0  0  0  0  0
    2.8894   -2.5241    0.0000 C   0  0  0  0  0  0  0  0  0  0  0  0
    4.2280   -1.8472    0.0000 C   0  0  0  0  0  0  0  0  0  0  0  0
    5.4835   -2.6680    0.0000 Br  0  0  0  0  0  0  0  0  0  0  0  0
    4.3111   -0.3495    0.0000 C   0  0  0  0  0  0  0  0  0  0  0  0
    5.6497    0.3274    0.0000 C   0  0  0  0  0  0  0  0  0  0  0  0
    5.7328    1.8251    0.0000 C   0  0  0  0  0  0  0  0  0  0  0  0
    4.4773    2.6459    0.0000 C   0  0  0  0  0  0  0  0  0  0  0  0
    3.1387    1.9690    0.0000 C   0  0  0  0  0  0  0  0  0  0  0  0
    3.0556    0.4713    0.0000 C   0  0  0  0  0  0  0  0  0  0  0  0
  1  2  1  0
  2  3  1  0
  3  4  2  0
  4  5  1  0
  5  6  2  0
  5  7  1  0
  7  8  1  0
  9  8  1  6
  9 10  1  0
 10 11  1  0
 11 12  1  0
 12 13  1  0
 13 14  1  0
 14 15  1  0
 15 16  1  0
 16 17  1  0
 17 18  1  0
 18 19  1  0
 19 20  1  0
 20 21  1  0
 21 22  1  0
  4 23  1  0
 23 24  2  0
 24 25  1  0
 24 26  1  0
 26 27  2  0
 27 28  1  0
 28 29  2  0
 29 30  1  0
 30 31  2  0
 31  3  1  0
 13  9  1  0
 19 14  1  0
 31 26  1  0
 22 15  1  0
M  END
>  <ChemBL_ID>  (715) 
CHEMBL54662

>  <Compound_Key>  (715) 
24

>  <Ki>  (715) 
267.0

>  <database>  (715) 
CHEMBL

>  <Assay_ChEMBL_ID>  (715) 
CHEMBL808906

>  <Document_ChEMBL_ID>  (715) 
CHEMBL1134687

$$$$

     RDKit          2D

 28 31  0  0  0  0  0  0  0  0999 V2000
    0.2558    2.1493    0.0000 C   0  0  0  0  0  0  0  0  0  0  0  0
    0.1323    0.6544    0.0000 O   0  0  0  0  0  0  0  0  0  0  0  0
    1.3651   -0.2001    0.0000 C   0  0  0  0  0  0  0  0  0  0  0  0
    1.2416   -1.6950    0.0000 C   0  0  0  0  0  0  0  0  0  0  0  0
   -0.1148   -2.3354    0.0000 C   0  0  0  0  0  0  0  0  0  0  0  0
   -0.2384   -3.8303    0.0000 O   0  0  0  0  0  0  0  0  0  0  0  0
   -1.3477   -1.4810    0.0000 N   0  0  0  0  0  0  0  0  0  0  0  0
   -2.7041   -2.1214    0.0000 C   0  0  0  0  0  0  0  0  0  0  0  0
   -3.9369   -1.2670    0.0000 C   0  0  0  0  0  0  0  0  0  0  0  0
   -5.3528   -1.7622    0.0000 C   0  0  0  0  0  0  0  0  0  0  0  0
   -6.2613   -0.5686    0.0000 C   0  0  0  0  0  0  0  0  0  0  0  0
   -5.4068    0.6643    0.0000 C   0  0  0  0  0  0  0  0  0  0  0  0
   -3.9703    0.2326    0.0000 N   0  0  0  0  0  0  0  0  0  0  0  0
   -2.7767    1.1411    0.0000 C   0  0  0  0  0  0  0  0  0  0  0  0
   -1.3931    0.5616    0.0000 C   0  0  0  0  0  0  0  0  0  0  0  0
   -0.1995    1.4701    0.0000 C   0  0  0  0  0  0  0  0  0  0  0  0
   -0.3895    2.9580    0.0000 C   0  0  0  0  0  0  0  0  0  0  0  0
   -1.7730    3.5375    0.0000 C   0  0  0  0  0  0  0  0  0  0  0  0
   -2.9666    2.6290    0.0000 C   0  0  0  0  0  0  0  0  0  0  0  0
    2.4744   -2.5494    0.0000 C   0  0  0  0  0  0  0  0  0  0  0  0
    3.8308   -1.9090    0.0000 C   0  0  0  0  0  0  0  0  0  0  0  0
    5.0637   -2.7634    0.0000 Br  0  0  0  0  0  0  0  0  0  0  0  0
    3.9544   -0.4141    0.0000 C   0  0  0  0  0  0  0  0  0  0  0  0
    5.3108    0.2264    0.0000 C   0  0  0  0  0  0  0  0  0  0  0  0
    5.4343    1.7213    0.0000 C   0  0  0  0  0  0  0  0  0  0  0  0
    4.2015    2.5757    0.0000 C   0  0  0  0  0  0  0  0  0  0  0  0
    2.8451    1.9353    0.0000 C   0  0  0  0  0  0  0  0  0  0  0  0
    2.7215    0.4404    0.0000 C   0  0  0  0  0  0  0  0  0  0  0  0
  1  2  1  0
  2  3  1  0
  3  4  2  0
  4  5  1  0
  5  6  2  0
  5  7  1  0
  7  8  1  0
  9  8  1  6
  9 10  1  0
 10 11  1  0
 11 12  1  0
 12 13  1  0
 13 14  1  0
 14 15  1  0
 15 16  1  0
 16 17  1  0
 17 18  1  0
 18 19  1  0
  4 20  1  0
 20 21  2  0
 21 22  1  0
 21 23  1  0
 23 24  2  0
 24 25  1  0
 25 26  2  0
 26 27  1  0
 27 28  2  0
 28  3  1  0
 13  9  1  0
 19 14  1  0
 28 23  1  0
M  END
>  <ChemBL_ID>  (716) 
CHEMBL52835

>  <Compound_Key>  (716) 
22

>  <Ki>  (716) 
147.0

>  <database>  (716) 
CHEMBL

>  <Assay_ChEMBL_ID>  (716) 
CHEMBL808906

>  <Document_ChEMBL_ID>  (716) 
CHEMBL1134687

$$$$

     RDKit          2D

 27 30  0  0  0  0  0  0  0  0999 V2000
    0.2577    2.2473    0.0000 C   0  0  0  0  0  0  0  0  0  0  0  0
    0.1159    0.7540    0.0000 O   0  0  0  0  0  0  0  0  0  0  0  0
    1.3382   -0.1154    0.0000 C   0  0  0  0  0  0  0  0  0  0  0  0
    1.1964   -1.6087    0.0000 C   0  0  0  0  0  0  0  0  0  0  0  0
   -0.1677   -2.2325    0.0000 C   0  0  0  0  0  0  0  0  0  0  0  0
   -0.3095   -3.7258    0.0000 O   0  0  0  0  0  0  0  0  0  0  0  0
   -1.3900   -1.3631    0.0000 N   0  0  0  0  0  0  0  0  0  0  0  0
   -2.7541   -1.9869    0.0000 C   0  0  0  0  0  0  0  0  0  0  0  0
   -3.9765   -1.1175    0.0000 C   0  0  0  0  0  0  0  0  0  0  0  0
   -5.3983   -1.5953    0.0000 C   0  0  0  0  0  0  0  0  0  0  0  0
   -6.2921   -0.3907    0.0000 C   0  0  0  0  0  0  0  0  0  0  0  0
   -5.4227    0.8316    0.0000 C   0  0  0  0  0  0  0  0  0  0  0  0
   -3.9915    0.3824    0.0000 N   0  0  0  0  0  0  0  0  0  0  0  0
   -2.7869    1.2763    0.0000 C   0  0  0  0  0  0  0  0  0  0  0  0
   -2.8020    2.7762    0.0000 C   0  0  0  0  0  0  0  0  0  0  0  0
   -1.3801    3.2540    0.0000 C   0  0  0  0  0  0  0  0  0  0  0  0
   -0.4863    2.0494    0.0000 C   0  0  0  0  0  0  0  0  0  0  0  0
   -1.3558    0.8271    0.0000 C   0  0  0  0  0  0  0  0  0  0  0  0
    2.4187   -2.4781    0.0000 C   0  0  0  0  0  0  0  0  0  0  0  0
    3.7829   -1.8543    0.0000 C   0  0  0  0  0  0  0  0  0  0  0  0
    5.0052   -2.7237    0.0000 Br  0  0  0  0  0  0  0  0  0  0  0  0
    3.9247   -0.3610    0.0000 C   0  0  0  0  0  0  0  0  0  0  0  0
    5.2888    0.2628    0.0000 C   0  0  0  0  0  0  0  0  0  0  0  0
    5.4306    1.7561    0.0000 C   0  0  0  0  0  0  0  0  0  0  0  0
    4.2083    2.6256    0.0000 C   0  0  0  0  0  0  0  0  0  0  0  0
    2.8441    2.0017    0.0000 C   0  0  0  0  0  0  0  0  0  0  0  0
    2.7023    0.5084    0.0000 C   0  0  0  0  0  0  0  0  0  0  0  0
  1  2  1  0
  2  3  1  0
  3  4  2  0
  4  5  1  0
  5  6  2  0
  5  7  1  0
  7  8  1  0
  9  8  1  1
  9 10  1  0
 10 11  1  0
 11 12  1  0
 12 13  1  0
 13 14  1  0
 14 15  1  0
 15 16  1  0
 16 17  1  0
 17 18  1  0
  4 19  1  0
 19 20  2  0
 20 21  1  0
 20 22  1  0
 22 23  2  0
 23 24  1  0
 24 25  2  0
 25 26  1  0
 26 27  2  0
 27  3  1  0
 13  9  1  0
 18 14  1  0
 27 22  1  0
M  END
>  <ChemBL_ID>  (717) 
CHEMBL416481

>  <Compound_Key>  (717) 
28

>  <Ki>  (717) 
35.0

>  <database>  (717) 
CHEMBL

>  <Assay_ChEMBL_ID>  (717) 
CHEMBL808906

>  <Document_ChEMBL_ID>  (717) 
CHEMBL1134687

$$$$

     RDKit          2D

 27 30  0  0  0  0  0  0  0  0999 V2000
    2.0142    2.9983    0.0000 C   0  0  0  0  0  0  0  0  0  0  0  0
    1.5994    1.5568    0.0000 O   0  0  0  0  0  0  0  0  0  0  0  0
    2.6404    0.4768    0.0000 C   0  0  0  0  0  0  0  0  0  0  0  0
    2.2256   -0.9647    0.0000 C   0  0  0  0  0  0  0  0  0  0  0  0
    0.7698   -1.3262    0.0000 C   0  0  0  0  0  0  0  0  0  0  0  0
    0.3550   -2.7677    0.0000 O   0  0  0  0  0  0  0  0  0  0  0  0
   -0.2712   -0.2462    0.0000 N   0  0  0  0  0  0  0  0  0  0  0  0
   -1.7270   -0.6078    0.0000 C   0  0  0  0  0  0  0  0  0  0  0  0
   -2.2902   -1.9980    0.0000 C   0  0  0  0  0  0  0  0  0  0  0  0
   -3.7864   -1.8920    0.0000 C   0  0  0  0  0  0  0  0  0  0  0  0
   -4.1479   -0.4362    0.0000 N   0  0  0  0  0  0  0  0  0  0  0  0
   -5.5382    0.1270    0.0000 C   0  0  0  0  0  0  0  0  0  0  0  0
   -5.7456    1.6126    0.0000 C   0  0  0  0  0  0  0  0  0  0  0  0
   -7.1358    2.1758    0.0000 C   0  0  0  0  0  0  0  0  0  0  0  0
   -8.3187    1.2534    0.0000 C   0  0  0  0  0  0  0  0  0  0  0  0
   -8.1113   -0.2322    0.0000 C   0  0  0  0  0  0  0  0  0  0  0  0
   -6.7211   -0.7954    0.0000 C   0  0  0  0  0  0  0  0  0  0  0  0
   -2.8751    0.3575    0.0000 C   0  0  0  0  0  0  0  0  0  0  0  0
    3.2666   -2.0447    0.0000 C   0  0  0  0  0  0  0  0  0  0  0  0
    4.7224   -1.6831    0.0000 C   0  0  0  0  0  0  0  0  0  0  0  0
    5.7633   -2.7631    0.0000 Br  0  0  0  0  0  0  0  0  0  0  0  0
    5.1372   -0.2416    0.0000 C   0  0  0  0  0  0  0  0  0  0  0  0
    6.5929    0.1199    0.0000 C   0  0  0  0  0  0  0  0  0  0  0  0
    7.0077    1.5614    0.0000 C   0  0  0  0  0  0  0  0  0  0  0  0
    5.9668    2.6414    0.0000 C   0  0  0  0  0  0  0  0  0  0  0  0
    4.5110    2.2798    0.0000 C   0  0  0  0  0  0  0  0  0  0  0  0
    4.0962    0.8383    0.0000 C   0  0  0  0  0  0  0  0  0  0  0  0
  1  2  1  0
  2  3  1  0
  3  4  2  0
  4  5  1  0
  5  6  2  0
  5  7  1  0
  8  7  1  1
  8  9  1  0
  9 10  1  0
 10 11  1  0
 11 12  1  0
 12 13  1  0
 13 14  1  0
 14 15  1  0
 15 16  1  0
 16 17  1  0
 11 18  1  0
  4 19  1  0
 19 20  2  0
 20 21  1  0
 20 22  1  0
 22 23  2  0
 23 24  1  0
 24 25  2  0
 25 26  1  0
 26 27  2  0
 27  3  1  0
 18  8  1  0
 27 22  1  0
 17 12  1  0
M  END
>  <ChemBL_ID>  (718) 
CHEMBL54865

>  <Compound_Key>  (718) 
9

>  <Ki>  (718) 
25.0

>  <database>  (718) 
CHEMBL

>  <Assay_ChEMBL_ID>  (718) 
CHEMBL808906

>  <Document_ChEMBL_ID>  (718) 
CHEMBL1134687

$$$$

     RDKit          2D

 28 31  0  0  0  0  0  0  0  0999 V2000
    1.5452    2.7863    0.0000 C   0  0  0  0  0  0  0  0  0  0  0  0
    1.3855    1.2948    0.0000 O   0  0  0  0  0  0  0  0  0  0  0  0
    2.5972    0.4108    0.0000 C   0  0  0  0  0  0  0  0  0  0  0  0
    2.4375   -1.0807    0.0000 C   0  0  0  0  0  0  0  0  0  0  0  0
    1.0659   -1.6881    0.0000 C   0  0  0  0  0  0  0  0  0  0  0  0
    0.9062   -3.1796    0.0000 O   0  0  0  0  0  0  0  0  0  0  0  0
   -0.1458   -0.8040    0.0000 N   0  0  0  0  0  0  0  0  0  0  0  0
   -1.5174   -1.4114    0.0000 C   0  0  0  0  0  0  0  0  0  0  0  0
   -1.8321   -2.8780    0.0000 C   0  0  0  0  0  0  0  0  0  0  0  0
   -3.3242   -3.0318    0.0000 C   0  0  0  0  0  0  0  0  0  0  0  0
   -3.9316   -1.6603    0.0000 N   0  0  0  0  0  0  0  0  0  0  0  0
   -5.3982   -1.3455    0.0000 C   0  0  0  0  0  0  0  0  0  0  0  0
   -5.8589    0.0820    0.0000 C   0  0  0  0  0  0  0  0  0  0  0  0
   -4.8530    1.1947    0.0000 C   0  0  0  0  0  0  0  0  0  0  0  0
   -5.3137    2.6222    0.0000 C   0  0  0  0  0  0  0  0  0  0  0  0
   -6.7803    2.9370    0.0000 C   0  0  0  0  0  0  0  0  0  0  0  0
   -7.7862    1.8243    0.0000 C   0  0  0  0  0  0  0  0  0  0  0  0
   -7.3255    0.3968    0.0000 C   0  0  0  0  0  0  0  0  0  0  0  0
   -2.8149   -0.6588    0.0000 C   0  0  0  0  0  0  0  0  0  0  0  0
    3.6492   -1.9648    0.0000 C   0  0  0  0  0  0  0  0  0  0  0  0
    5.0208   -1.3574    0.0000 C   0  0  0  0  0  0  0  0  0  0  0  0
    6.2325   -2.2415    0.0000 Br  0  0  0  0  0  0  0  0  0  0  0  0
    5.1805    0.1341    0.0000 C   0  0  0  0  0  0  0  0  0  0  0  0
    6.5521    0.7414    0.0000 C   0  0  0  0  0  0  0  0  0  0  0  0
    6.7118    2.2329    0.0000 C   0  0  0  0  0  0  0  0  0  0  0  0
    5.5000    3.1170    0.0000 C   0  0  0  0  0  0  0  0  0  0  0  0
    4.1285    2.5096    0.0000 C   0  0  0  0  0  0  0  0  0  0  0  0
    3.9688    1.0181    0.0000 C   0  0  0  0  0  0  0  0  0  0  0  0
  1  2  1  0
  2  3  1  0
  3  4  2  0
  4  5  1  0
  5  6  2  0
  5  7  1  0
  8  7  1  1
  8  9  1  0
  9 10  1  0
 10 11  1  0
 11 12  1  0
 12 13  1  0
 13 14  2  0
 14 15  1  0
 15 16  2  0
 16 17  1  0
 17 18  2  0
 11 19  1  0
  4 20  1  0
 20 21  2  0
 21 22  1  0
 21 23  1  0
 23 24  2  0
 24 25  1  0
 25 26  2  0
 26 27  1  0
 27 28  2  0
 28  3  1  0
 19  8  1  0
 28 23  1  0
 18 13  1  0
M  END
>  <ChemBL_ID>  (719) 
CHEMBL50465

>  <Compound_Key>  (719) 
7

>  <Ki>  (719) 
42.0

>  <database>  (719) 
CHEMBL

>  <Assay_ChEMBL_ID>  (719) 
CHEMBL808906

>  <Document_ChEMBL_ID>  (719) 
CHEMBL1134687

$$$$

     RDKit          2D

 30 34  0  0  0  0  0  0  0  0999 V2000
    2.4960    3.0062    0.0000 C   0  0  0  0  0  0  0  0  0  0  0  0
    2.0713    1.5675    0.0000 O   0  0  0  0  0  0  0  0  0  0  0  0
    3.1049    0.4804    0.0000 C   0  0  0  0  0  0  0  0  0  0  0  0
    2.6802   -0.9582    0.0000 C   0  0  0  0  0  0  0  0  0  0  0  0
    1.2220   -1.3098    0.0000 C   0  0  0  0  0  0  0  0  0  0  0  0
    0.7974   -2.7484    0.0000 O   0  0  0  0  0  0  0  0  0  0  0  0
    0.1884   -0.2227    0.0000 N   0  0  0  0  0  0  0  0  0  0  0  0
   -1.2698   -0.5743    0.0000 C   0  0  0  0  0  0  0  0  0  0  0  0
   -1.8425   -1.9606    0.0000 C   0  0  0  0  0  0  0  0  0  0  0  0
   -3.3380   -1.8444    0.0000 C   0  0  0  0  0  0  0  0  0  0  0  0
   -3.6895   -0.3861    0.0000 N   0  0  0  0  0  0  0  0  0  0  0  0
   -5.0759    0.1866    0.0000 C   0  0  0  0  0  0  0  0  0  0  0  0
   -5.2731    1.6735    0.0000 C   0  0  0  0  0  0  0  0  0  0  0  0
   -6.6595    2.2462    0.0000 C   0  0  0  0  0  0  0  0  0  0  0  0
   -7.8486    1.3319    0.0000 C   0  0  0  0  0  0  0  0  0  0  0  0
   -7.6514   -0.1550    0.0000 C   0  0  0  0  0  0  0  0  0  0  0  0
   -6.2650   -0.7277    0.0000 C   0  0  0  0  0  0  0  0  0  0  0  0
   -4.8787   -1.3004    0.0000 C   0  0  0  0  0  0  0  0  0  0  0  0
   -3.6895   -0.3861    0.0000 C   0  0  0  0  0  0  0  0  0  0  0  0
   -3.8867    1.1008    0.0000 C   0  0  0  0  0  0  0  0  0  0  0  0
   -2.4113    0.3988    0.0000 C   0  0  0  0  0  0  0  0  0  0  0  0
    3.7138   -2.0453    0.0000 C   0  0  0  0  0  0  0  0  0  0  0  0
    5.1720   -1.6937    0.0000 C   0  0  0  0  0  0  0  0  0  0  0  0
    6.2056   -2.7808    0.0000 Br  0  0  0  0  0  0  0  0  0  0  0  0
    5.5967   -0.2551    0.0000 C   0  0  0  0  0  0  0  0  0  0  0  0
    7.0549    0.0965    0.0000 C   0  0  0  0  0  0  0  0  0  0  0  0
    7.4795    1.5351    0.0000 C   0  0  0  0  0  0  0  0  0  0  0  0
    6.4460    2.6222    0.0000 C   0  0  0  0  0  0  0  0  0  0  0  0
    4.9877    2.2706    0.0000 C   0  0  0  0  0  0  0  0  0  0  0  0
    4.5631    0.8320    0.0000 C   0  0  0  0  0  0  0  0  0  0  0  0
  1  2  1  0
  2  3  1  0
  3  4  2  0
  4  5  1  0
  5  6  2  0
  5  7  1  0
  8  7  1  6
  8  9  1  0
  9 10  1  0
 10 11  1  0
 11 12  1  0
 12 13  1  0
 13 14  1  0
 14 15  1  0
 15 16  1  0
 16 17  1  0
 17 18  1  0
 18 19  1  0
 19 20  1  0
 11 21  1  0
  4 22  1  0
 22 23  2  0
 23 24  1  0
 23 25  1  0
 25 26  2  0
 26 27  1  0
 27 28  2  0
 28 29  1  0
 29 30  2  0
 30  3  1  0
 21  8  1  0
 30 25  1  0
 17 12  1  0
 20 13  1  0
M  END
>  <ChemBL_ID>  (720) 
CHEMBL301302

>  <Compound_Key>  (720) 
17

>  <Ki>  (720) 
279.0

>  <database>  (720) 
CHEMBL

>  <Assay_ChEMBL_ID>  (720) 
CHEMBL808906

>  <Document_ChEMBL_ID>  (720) 
CHEMBL1134687

$$$$

     RDKit          2D

 28 31  0  0  0  0  0  0  0  0999 V2000
    2.2678    2.9883    0.0000 C   0  0  0  0  0  0  0  0  0  0  0  0
    1.8757    1.5405    0.0000 O   0  0  0  0  0  0  0  0  0  0  0  0
    2.9336    0.4770    0.0000 C   0  0  0  0  0  0  0  0  0  0  0  0
    2.5416   -0.9708    0.0000 C   0  0  0  0  0  0  0  0  0  0  0  0
    1.0917   -1.3553    0.0000 C   0  0  0  0  0  0  0  0  0  0  0  0
    0.6997   -2.8031    0.0000 O   0  0  0  0  0  0  0  0  0  0  0  0
    0.0338   -0.2918    0.0000 N   0  0  0  0  0  0  0  0  0  0  0  0
   -1.4161   -0.6763    0.0000 C   0  0  0  0  0  0  0  0  0  0  0  0
   -1.9573   -2.0753    0.0000 C   0  0  0  0  0  0  0  0  0  0  0  0
   -3.4550   -1.9928    0.0000 C   0  0  0  0  0  0  0  0  0  0  0  0
   -3.8394   -0.5429    0.0000 N   0  0  0  0  0  0  0  0  0  0  0  0
   -5.2384   -0.0017    0.0000 C   0  0  0  0  0  0  0  0  0  0  0  0
   -6.3330   -1.0273    0.0000 C   0  0  0  0  0  0  0  0  0  0  0  0
   -7.8173   -0.8110    0.0000 C   0  0  0  0  0  0  0  0  0  0  0  0
   -8.5736    0.4844    0.0000 C   0  0  0  0  0  0  0  0  0  0  0  0
   -8.0324    1.8833    0.0000 C   0  0  0  0  0  0  0  0  0  0  0  0
   -6.6012    2.3324    0.0000 C   0  0  0  0  0  0  0  0  0  0  0  0
   -5.3578    1.4935    0.0000 C   0  0  0  0  0  0  0  0  0  0  0  0
   -2.5793    0.2707    0.0000 C   0  0  0  0  0  0  0  0  0  0  0  0
    3.5995   -2.0342    0.0000 C   0  0  0  0  0  0  0  0  0  0  0  0
    5.0494   -1.6498    0.0000 C   0  0  0  0  0  0  0  0  0  0  0  0
    6.1073   -2.7132    0.0000 Br  0  0  0  0  0  0  0  0  0  0  0  0
    5.4414   -0.2019    0.0000 C   0  0  0  0  0  0  0  0  0  0  0  0
    6.8913    0.1825    0.0000 C   0  0  0  0  0  0  0  0  0  0  0  0
    7.2833    1.6304    0.0000 C   0  0  0  0  0  0  0  0  0  0  0  0
    6.2254    2.6938    0.0000 C   0  0  0  0  0  0  0  0  0  0  0  0
    4.7755    2.3094    0.0000 C   0  0  0  0  0  0  0  0  0  0  0  0
    4.3835    0.8615    0.0000 C   0  0  0  0  0  0  0  0  0  0  0  0
  1  2  1  0
  2  3  1  0
  3  4  2  0
  4  5  1  0
  5  6  2  0
  5  7  1  0
  8  7  1  6
  8  9  1  0
  9 10  1  0
 10 11  1  0
 11 12  1  0
 12 13  1  0
 13 14  1  0
 14 15  1  0
 15 16  1  0
 16 17  1  0
 17 18  1  0
 11 19  1  0
  4 20  1  0
 20 21  2  0
 21 22  1  0
 21 23  1  0
 23 24  2  0
 24 25  1  0
 25 26  2  0
 26 27  1  0
 27 28  2  0
 28  3  1  0
 19  8  1  0
 28 23  1  0
 18 12  1  0
M  END
>  <ChemBL_ID>  (721) 
CHEMBL53320

>  <Compound_Key>  (721) 
16

>  <Ki>  (721) 
10.0

>  <database>  (721) 
CHEMBL

>  <Assay_ChEMBL_ID>  (721) 
CHEMBL808906

>  <Document_ChEMBL_ID>  (721) 
CHEMBL1134687

$$$$

     RDKit          2D

 29 32  0  0  0  0  0  0  0  0999 V2000
    3.2606    3.1284    0.0000 C   0  0  0  0  0  0  0  0  0  0  0  0
    2.5784    1.7925    0.0000 O   0  0  0  0  0  0  0  0  0  0  0  0
    3.3943    0.5337    0.0000 C   0  0  0  0  0  0  0  0  0  0  0  0
    2.7121   -0.8022    0.0000 C   0  0  0  0  0  0  0  0  0  0  0  0
    1.2141   -0.8794    0.0000 C   0  0  0  0  0  0  0  0  0  0  0  0
    0.5320   -2.2153    0.0000 O   0  0  0  0  0  0  0  0  0  0  0  0
    0.3982    0.3794    0.0000 N   0  0  0  0  0  0  0  0  0  0  0  0
   -1.0998    0.3022    0.0000 C   0  0  0  0  0  0  0  0  0  0  0  0
   -1.9156    1.5609    0.0000 C   0  0  0  0  0  0  0  0  0  0  0  0
   -3.4136    1.4837    0.0000 C   0  0  0  0  0  0  0  0  0  0  0  0
   -4.0958    0.1478    0.0000 N   0  0  0  0  0  0  0  0  0  0  0  0
   -5.5938    0.0706    0.0000 C   0  0  0  0  0  0  0  0  0  0  0  0
   -6.1742   -1.3126    0.0000 C   0  0  0  0  0  0  0  0  0  0  0  0
   -7.6175   -1.7212    0.0000 C   0  0  0  0  0  0  0  0  0  0  0  0
   -8.8368   -0.8475    0.0000 C   0  0  0  0  0  0  0  0  0  0  0  0
   -8.9140    0.6505    0.0000 C   0  0  0  0  0  0  0  0  0  0  0  0
   -7.7909    1.6448    0.0000 C   0  0  0  0  0  0  0  0  0  0  0  0
   -6.3133    1.3867    0.0000 C   0  0  0  0  0  0  0  0  0  0  0  0
   -3.2799   -1.1109    0.0000 C   0  0  0  0  0  0  0  0  0  0  0  0
   -1.7819   -1.0338    0.0000 C   0  0  0  0  0  0  0  0  0  0  0  0
    3.5280   -2.0609    0.0000 C   0  0  0  0  0  0  0  0  0  0  0  0
    5.0260   -1.9837    0.0000 C   0  0  0  0  0  0  0  0  0  0  0  0
    5.8418   -3.2424    0.0000 Br  0  0  0  0  0  0  0  0  0  0  0  0
    5.7081   -0.6478    0.0000 C   0  0  0  0  0  0  0  0  0  0  0  0
    7.2062   -0.5706    0.0000 C   0  0  0  0  0  0  0  0  0  0  0  0
    7.8883    0.7653    0.0000 C   0  0  0  0  0  0  0  0  0  0  0  0
    7.0725    2.0240    0.0000 C   0  0  0  0  0  0  0  0  0  0  0  0
    5.5744    1.9468    0.0000 C   0  0  0  0  0  0  0  0  0  0  0  0
    4.8923    0.6109    0.0000 C   0  0  0  0  0  0  0  0  0  0  0  0
  1  2  1  0
  2  3  1  0
  3  4  2  0
  4  5  1  0
  5  6  2  0
  5  7  1  0
  7  8  1  0
  8  9  1  0
  9 10  1  0
 10 11  1  0
 11 12  1  0
 12 13  1  0
 13 14  1  0
 14 15  1  0
 15 16  1  0
 16 17  1  0
 17 18  1  0
 11 19  1  0
 19 20  1  0
  4 21  1  0
 21 22  2  0
 22 23  1  0
 22 24  1  0
 24 25  2  0
 25 26  1  0
 26 27  2  0
 27 28  1  0
 28 29  2  0
 29  3  1  0
 20  8  1  0
 29 24  1  0
 18 12  1  0
M  END
>  <ChemBL_ID>  (722) 
CHEMBL53078

>  <Compound_Key>  (722) 
4

>  <Ki>  (722) 
2.6

>  <database>  (722) 
CHEMBL

>  <Assay_ChEMBL_ID>  (722) 
CHEMBL808906

>  <Document_ChEMBL_ID>  (722) 
CHEMBL1134687

$$$$

     RDKit          2D

 27 30  0  0  0  0  0  0  0  0999 V2000
   -9.4439   -0.8282    0.0000 C   0  0  0  0  0  0  0  0  0  0  0  0
   -8.0074   -1.2600    0.0000 O   0  0  0  0  0  0  0  0  0  0  0  0
   -6.9152   -0.2320    0.0000 C   0  0  0  0  0  0  0  0  0  0  0  0
   -7.2594    1.2280    0.0000 C   0  0  0  0  0  0  0  0  0  0  0  0
   -6.1671    2.2561    0.0000 C   0  0  0  0  0  0  0  0  0  0  0  0
   -4.7306    1.8242    0.0000 C   0  0  0  0  0  0  0  0  0  0  0  0
   -4.3864    0.3642    0.0000 C   0  0  0  0  0  0  0  0  0  0  0  0
   -5.4787   -0.6638    0.0000 C   0  0  0  0  0  0  0  0  0  0  0  0
   -5.1345   -2.1238    0.0000 C   0  0  0  0  0  0  0  0  0  0  0  0
   -3.6980   -2.5557    0.0000 C   0  0  0  0  0  0  0  0  0  0  0  0
   -2.6057   -1.5276    0.0000 C   0  0  0  0  0  0  0  0  0  0  0  0
   -2.9500   -0.0676    0.0000 C   0  0  0  0  0  0  0  0  0  0  0  0
   -1.8577    0.9604    0.0000 N   0  0  0  0  0  0  0  0  0  0  0  0
   -0.4212    0.5286    0.0000 C   0  0  0  0  0  0  0  0  0  0  0  0
    0.6711    1.5566    0.0000 C   0  0  0  0  0  0  0  0  0  0  0  0
    2.1075    1.1248    0.0000 N   0  0  0  0  0  0  0  0  0  0  0  0
    2.4518   -0.3352    0.0000 C   0  0  0  0  0  0  0  0  0  0  0  0
    3.8882   -0.7671    0.0000 C   0  0  0  0  0  0  0  0  0  0  0  0
    4.9805    0.2610    0.0000 N   0  0  0  0  0  0  0  0  0  0  0  0
    6.4170   -0.1709    0.0000 C   0  0  0  0  0  0  0  0  0  0  0  0
    6.7612   -1.6309    0.0000 C   0  0  0  0  0  0  0  0  0  0  0  0
    8.1977   -2.0627    0.0000 C   0  0  0  0  0  0  0  0  0  0  0  0
    9.2899   -1.0347    0.0000 C   0  0  0  0  0  0  0  0  0  0  0  0
    8.9457    0.4253    0.0000 C   0  0  0  0  0  0  0  0  0  0  0  0
    7.5092    0.8572    0.0000 C   0  0  0  0  0  0  0  0  0  0  0  0
    4.6363    1.7210    0.0000 C   0  0  0  0  0  0  0  0  0  0  0  0
    3.1998    2.1528    0.0000 C   0  0  0  0  0  0  0  0  0  0  0  0
  1  2  1  0
  2  3  1  0
  3  4  2  0
  4  5  1  0
  5  6  2  0
  6  7  1  0
  7  8  2  0
  8  9  1  0
  9 10  1  0
 10 11  1  0
 11 12  1  0
 12 13  1  1
 13 14  1  0
 14 15  1  0
 15 16  1  0
 16 17  1  0
 17 18  1  0
 18 19  1  0
 19 20  1  0
 20 21  1  0
 21 22  1  0
 22 23  1  0
 23 24  1  0
 24 25  1  0
 19 26  1  0
 26 27  1  0
  8  3  1  0
 27 16  1  0
 12  7  1  0
 25 20  1  0
M  END
>  <ChemBL_ID>  (723) 
CHEMBL1672035

>  <Compound_Key>  (723) 
(-)-S-26

>  <Ki>  (723) 
8.52

>  <database>  (723) 
SRSLDB

$$$$

     RDKit          2D

 31 36  0  0  0  0  0  0  0  0999 V2000
    3.0863    2.9972    0.0000 C   0  0  0  0  0  0  0  0  0  0  0  0
    2.6499    1.5621    0.0000 O   0  0  0  0  0  0  0  0  0  0  0  0
    3.6745    0.4666    0.0000 C   0  0  0  0  0  0  0  0  0  0  0  0
    3.2380   -0.9685    0.0000 C   0  0  0  0  0  0  0  0  0  0  0  0
    1.7769   -1.3081    0.0000 C   0  0  0  0  0  0  0  0  0  0  0  0
    1.3405   -2.7432    0.0000 O   0  0  0  0  0  0  0  0  0  0  0  0
    0.7523   -0.2125    0.0000 N   0  0  0  0  0  0  0  0  0  0  0  0
   -0.7087   -0.5521    0.0000 C   0  0  0  0  0  0  0  0  0  0  0  0
   -1.2928   -1.9337    0.0000 C   0  0  0  0  0  0  0  0  0  0  0  0
   -2.7873   -1.8051    0.0000 C   0  0  0  0  0  0  0  0  0  0  0  0
   -3.1268   -0.3441    0.0000 N   0  0  0  0  0  0  0  0  0  0  0  0
   -4.5084    0.2400    0.0000 C   0  0  0  0  0  0  0  0  0  0  0  0
   -5.7051   -0.6645    0.0000 C   0  0  0  0  0  0  0  0  0  0  0  0
   -5.8901    0.8241    0.0000 C   0  0  0  0  0  0  0  0  0  0  0  0
   -7.2717    1.4082    0.0000 C   0  0  0  0  0  0  0  0  0  0  0  0
   -8.4683    0.5037    0.0000 C   0  0  0  0  0  0  0  0  0  0  0  0
   -8.2833   -0.9848    0.0000 C   0  0  0  0  0  0  0  0  0  0  0  0
   -5.2775    0.3469    0.0000 C   0  0  0  0  0  0  0  0  0  0  0  0
   -4.6934    1.7286    0.0000 C   0  0  0  0  0  0  0  0  0  0  0  0
   -6.0750    2.3126    0.0000 C   0  0  0  0  0  0  0  0  0  0  0  0
   -6.9017   -1.5689    0.0000 C   0  0  0  0  0  0  0  0  0  0  0  0
   -1.8422    0.4303    0.0000 C   0  0  0  0  0  0  0  0  0  0  0  0
    4.2626   -2.0641    0.0000 C   0  0  0  0  0  0  0  0  0  0  0  0
    5.7237   -1.7245    0.0000 C   0  0  0  0  0  0  0  0  0  0  0  0
    6.7482   -2.8201    0.0000 Br  0  0  0  0  0  0  0  0  0  0  0  0
    6.1601   -0.2894    0.0000 C   0  0  0  0  0  0  0  0  0  0  0  0
    7.6212    0.0501    0.0000 C   0  0  0  0  0  0  0  0  0  0  0  0
    8.0577    1.4852    0.0000 C   0  0  0  0  0  0  0  0  0  0  0  0
    7.0331    2.5808    0.0000 C   0  0  0  0  0  0  0  0  0  0  0  0
    5.5720    2.2412    0.0000 C   0  0  0  0  0  0  0  0  0  0  0  0
    5.1355    0.8061    0.0000 C   0  0  0  0  0  0  0  0  0  0  0  0
  1  2  1  0
  2  3  1  0
  3  4  2  0
  4  5  1  0
  5  6  2  0
  5  7  1  0
  8  7  1  6
  8  9  1  0
  9 10  1  0
 10 11  1  0
 11 12  1  0
 12 13  1  0
 13 14  1  1
 15 14  1  1
 15 16  1  0
 17 16  1  1
 17 18  1  0
 19 18  1  6
 19 20  1  0
 17 21  1  0
 11 22  1  0
  4 23  1  0
 23 24  2  0
 24 25  1  0
 24 26  1  0
 26 27  2  0
 27 28  1  0
 28 29  2  0
 29 30  1  0
 30 31  2  0
 31  3  1  0
 22  8  1  0
 31 26  1  0
 19 12  1  0
 21 13  1  0
 20 15  1  0
M  END
>  <ChemBL_ID>  (724) 
CHEMBL51754

>  <Compound_Key>  (724) 
18

>  <Ki>  (724) 
21.4

>  <database>  (724) 
CHEMBL

>  <Assay_ChEMBL_ID>  (724) 
CHEMBL808906

>  <Document_ChEMBL_ID>  (724) 
CHEMBL1134687

$$$$

     RDKit          2D

 27 30  0  0  0  0  0  0  0  0999 V2000
    2.6281    3.1282    0.0000 C   0  0  0  0  0  0  0  0  0  0  0  0
    1.9488    1.7908    0.0000 O   0  0  0  0  0  0  0  0  0  0  0  0
    2.7672    0.5338    0.0000 C   0  0  0  0  0  0  0  0  0  0  0  0
    2.0879   -0.8035    0.0000 C   0  0  0  0  0  0  0  0  0  0  0  0
    0.5900   -0.8838    0.0000 C   0  0  0  0  0  0  0  0  0  0  0  0
   -0.0894   -2.2211    0.0000 O   0  0  0  0  0  0  0  0  0  0  0  0
   -0.2285    0.3732    0.0000 N   0  0  0  0  0  0  0  0  0  0  0  0
   -1.7263    0.2929    0.0000 C   0  0  0  0  0  0  0  0  0  0  0  0
   -2.5448    1.5499    0.0000 C   0  0  0  0  0  0  0  0  0  0  0  0
   -4.0426    1.4696    0.0000 C   0  0  0  0  0  0  0  0  0  0  0  0
   -4.7220    0.1323    0.0000 N   0  0  0  0  0  0  0  0  0  0  0  0
   -6.2199    0.0519    0.0000 C   0  0  0  0  0  0  0  0  0  0  0  0
   -7.0353   -1.2070    0.0000 C   0  0  0  0  0  0  0  0  0  0  0  0
   -8.4847   -0.8206    0.0000 C   0  0  0  0  0  0  0  0  0  0  0  0
   -8.5650    0.6773    0.0000 C   0  0  0  0  0  0  0  0  0  0  0  0
   -7.1652    1.2165    0.0000 C   0  0  0  0  0  0  0  0  0  0  0  0
   -3.9035   -1.1248    0.0000 C   0  0  0  0  0  0  0  0  0  0  0  0
   -2.4057   -1.0444    0.0000 C   0  0  0  0  0  0  0  0  0  0  0  0
    2.9063   -2.0605    0.0000 C   0  0  0  0  0  0  0  0  0  0  0  0
    4.4042   -1.9802    0.0000 C   0  0  0  0  0  0  0  0  0  0  0  0
    5.2227   -3.2372    0.0000 Br  0  0  0  0  0  0  0  0  0  0  0  0
    5.0836   -0.6429    0.0000 C   0  0  0  0  0  0  0  0  0  0  0  0
    6.5814   -0.5626    0.0000 C   0  0  0  0  0  0  0  0  0  0  0  0
    7.2608    0.7748    0.0000 C   0  0  0  0  0  0  0  0  0  0  0  0
    6.4423    2.0318    0.0000 C   0  0  0  0  0  0  0  0  0  0  0  0
    4.9445    1.9515    0.0000 C   0  0  0  0  0  0  0  0  0  0  0  0
    4.2651    0.6141    0.0000 C   0  0  0  0  0  0  0  0  0  0  0  0
  1  2  1  0
  2  3  1  0
  3  4  2  0
  4  5  1  0
  5  6  2  0
  5  7  1  0
  7  8  1  0
  8  9  1  0
  9 10  1  0
 10 11  1  0
 11 12  1  0
 12 13  1  0
 13 14  1  0
 14 15  1  0
 15 16  1  0
 11 17  1  0
 17 18  1  0
  4 19  1  0
 19 20  2  0
 20 21  1  0
 20 22  1  0
 22 23  2  0
 23 24  1  0
 24 25  2  0
 25 26  1  0
 26 27  2  0
 27  3  1  0
 18  8  1  0
 27 22  1  0
 16 12  1  0
M  END
>  <ChemBL_ID>  (725) 
CHEMBL54092

>  <Compound_Key>  (725) 
2

>  <Ki>  (725) 
6.8

>  <database>  (725) 
CHEMBL

>  <Assay_ChEMBL_ID>  (725) 
CHEMBL808906

>  <Document_ChEMBL_ID>  (725) 
CHEMBL1134687

$$$$

     RDKit          2D

 32 36  0  0  0  0  0  0  0  0999 V2000
    1.9170    2.6668    0.0000 C   0  0  0  0  0  0  0  0  0  0  0  0
    1.3169    1.2920    0.0000 O   0  0  0  0  0  0  0  0  0  0  0  0
    2.2075    0.0850    0.0000 C   0  0  0  0  0  0  0  0  0  0  0  0
    1.6074   -1.2898    0.0000 C   0  0  0  0  0  0  0  0  0  0  0  0
    0.1168   -1.4575    0.0000 C   0  0  0  0  0  0  0  0  0  0  0  0
   -0.4832   -2.8322    0.0000 O   0  0  0  0  0  0  0  0  0  0  0  0
   -0.7737   -0.2505    0.0000 N   0  0  0  0  0  0  0  0  0  0  0  0
   -2.2643   -0.4182    0.0000 C   0  0  0  0  0  0  0  0  0  0  0  0
   -3.1549    0.7889    0.0000 C   0  0  0  0  0  0  0  0  0  0  0  0
   -4.6455    0.6212    0.0000 C   0  0  0  0  0  0  0  0  0  0  0  0
   -6.1360    0.4534    0.0000 C   0  0  0  0  0  0  0  0  0  0  0  0
   -6.7361   -0.9213    0.0000 C   0  0  0  0  0  0  0  0  0  0  0  0
   -5.8456   -2.1283    0.0000 C   0  0  0  0  0  0  0  0  0  0  0  0
   -4.3550   -1.9606    0.0000 C   0  0  0  0  0  0  0  0  0  0  0  0
   -2.8644   -1.7929    0.0000 C   0  0  0  0  0  0  0  0  0  0  0  0
   -3.7549   -0.5859    0.0000 N   0  0  0  0  0  0  0  0  0  0  0  0
   -2.2643   -0.4182    0.0000 C   0  0  0  0  0  0  0  0  0  0  0  0
   -1.6643    0.9566    0.0000 C   0  0  0  0  0  0  0  0  0  0  0  0
   -0.1737    1.1243    0.0000 C   0  0  0  0  0  0  0  0  0  0  0  0
    0.4264    2.4990    0.0000 C   0  0  0  0  0  0  0  0  0  0  0  0
   -0.4642    3.7061    0.0000 C   0  0  0  0  0  0  0  0  0  0  0  0
   -1.9547    3.5384    0.0000 C   0  0  0  0  0  0  0  0  0  0  0  0
   -2.5548    2.1636    0.0000 C   0  0  0  0  0  0  0  0  0  0  0  0
    2.4980   -2.4968    0.0000 C   0  0  0  0  0  0  0  0  0  0  0  0
    3.9885   -2.3291    0.0000 C   0  0  0  0  0  0  0  0  0  0  0  0
    4.8791   -3.5361    0.0000 Br  0  0  0  0  0  0  0  0  0  0  0  0
    4.5886   -0.9544    0.0000 C   0  0  0  0  0  0  0  0  0  0  0  0
    6.0792   -0.7867    0.0000 C   0  0  0  0  0  0  0  0  0  0  0  0
    6.6793    0.5881    0.0000 C   0  0  0  0  0  0  0  0  0  0  0  0
    5.7887    1.7951    0.0000 C   0  0  0  0  0  0  0  0  0  0  0  0
    4.2981    1.6274    0.0000 C   0  0  0  0  0  0  0  0  0  0  0  0
    3.6981    0.2527    0.0000 C   0  0  0  0  0  0  0  0  0  0  0  0
  1  2  1  0
  2  3  1  0
  3  4  2  0
  4  5  1  0
  5  6  2  0
  5  7  1  0
  7  8  1  0
  8  9  1  0
  9 10  1  0
 10 11  1  0
 11 12  1  0
 12 13  1  0
 13 14  1  0
 14 15  1  0
 14 16  1  0
 16 17  1  0
 17 18  1  0
 18 19  2  0
 19 20  1  0
 20 21  2  0
 21 22  1  0
 22 23  2  0
  4 24  1  0
 24 25  2  0
 25 26  1  0
 25 27  1  0
 27 28  2  0
 28 29  1  0
 29 30  2  0
 30 31  1  0
 31 32  2  0
 32  3  1  0
 15  8  1  0
 23 18  1  0
 32 27  1  0
 16 10  1  0
M  END
>  <ChemBL_ID>  (726) 
CHEMBL52588

>  <Compound_Key>  (726) 
37

>  <Ki>  (726) 
250.0

>  <database>  (726) 
CHEMBL

>  <Assay_ChEMBL_ID>  (726) 
CHEMBL808906

>  <Document_ChEMBL_ID>  (726) 
CHEMBL1134687

$$$$

     RDKit          2D

 26 28  0  0  0  0  0  0  0  0999 V2000
  -10.2721   -0.1358    0.0000 C   0  0  0  0  0  0  0  0  0  0  0  0
   -9.1469   -1.1278    0.0000 O   0  0  0  0  0  0  0  0  0  0  0  0
   -7.7252   -0.6493    0.0000 C   0  0  0  0  0  0  0  0  0  0  0  0
   -7.4288    0.8211    0.0000 C   0  0  0  0  0  0  0  0  0  0  0  0
   -6.0071    1.2995    0.0000 C   0  0  0  0  0  0  0  0  0  0  0  0
   -4.8819    0.3076    0.0000 C   0  0  0  0  0  0  0  0  0  0  0  0
   -3.4603    0.7860    0.0000 C   0  0  0  0  0  0  0  0  0  0  0  0
   -2.3351   -0.2060    0.0000 C   0  0  0  0  0  0  0  0  0  0  0  0
   -2.6316   -1.6764    0.0000 O   0  0  0  0  0  0  0  0  0  0  0  0
   -0.9135    0.2725    0.0000 N   0  0  0  0  0  0  0  0  0  0  0  0
    0.2117   -0.7195    0.0000 C   0  0  0  0  0  0  0  0  0  0  0  0
    1.6334   -0.2411    0.0000 C   0  0  0  0  0  0  0  0  0  0  0  0
    1.9298    1.2293    0.0000 N   0  0  0  0  0  0  0  0  0  0  0  0
    3.3515    1.7078    0.0000 C   0  0  0  0  0  0  0  0  0  0  0  0
    4.4767    0.7158    0.0000 C   0  0  0  0  0  0  0  0  0  0  0  0
    5.8983    1.1943    0.0000 C   0  0  0  0  0  0  0  0  0  0  0  0
    7.0235    0.2023    0.0000 C   0  0  0  0  0  0  0  0  0  0  0  0
    6.7270   -1.2681    0.0000 C   0  0  0  0  0  0  0  0  0  0  0  0
    7.8522   -2.2601    0.0000 C   0  0  0  0  0  0  0  0  0  0  0  0
    9.2738   -1.7816    0.0000 C   0  0  0  0  0  0  0  0  0  0  0  0
    9.5703   -0.3112    0.0000 C   0  0  0  0  0  0  0  0  0  0  0  0
    8.4451    0.6807    0.0000 C   0  0  0  0  0  0  0  0  0  0  0  0
    0.8047    2.2213    0.0000 C   0  0  0  0  0  0  0  0  0  0  0  0
   -0.6170    1.7429    0.0000 C   0  0  0  0  0  0  0  0  0  0  0  0
   -5.1784   -1.1629    0.0000 C   0  0  0  0  0  0  0  0  0  0  0  0
   -6.6001   -1.6413    0.0000 C   0  0  0  0  0  0  0  0  0  0  0  0
  1  2  1  0
  2  3  1  0
  3  4  2  0
  4  5  1  0
  5  6  2  0
  6  7  1  0
  7  8  1  0
  8  9  2  0
  8 10  1  0
 10 11  1  0
 11 12  1  0
 12 13  1  0
 13 14  1  0
 14 15  1  0
 15 16  1  0
 16 17  1  0
 17 18  2  0
 18 19  1  0
 19 20  2  0
 20 21  1  0
 21 22  2  0
 13 23  1  0
 23 24  1  0
  6 25  1  0
 25 26  2  0
 26  3  1  0
 24 10  1  0
 22 17  1  0
M  END
>  <ChemBL_ID>  (727) 
CHEMBL359209

>  <Compound_Key>  (727) 
7

>  <Ki>  (727) 
464.0

>  <database>  (727) 
CHEMBL

>  <Assay_ChEMBL_ID>  (727) 
CHEMBL808908

>  <Document_ChEMBL_ID>  (727) 
CHEMBL1131417

$$$$

     RDKit          2D

 24 26  0  0  0  0  0  0  0  0999 V2000
   -9.6738   -1.2869    0.0000 N   0  0  0  0  0  0  0  0  0  0  0  0
   -8.2563   -0.7962    0.0000 C   0  0  0  0  0  0  0  0  0  0  0  0
   -7.9726    0.6767    0.0000 C   0  0  0  0  0  0  0  0  0  0  0  0
   -6.5551    1.1674    0.0000 C   0  0  0  0  0  0  0  0  0  0  0  0
   -5.4214    0.1852    0.0000 C   0  0  0  0  0  0  0  0  0  0  0  0
   -4.0039    0.6759    0.0000 C   0  0  0  0  0  0  0  0  0  0  0  0
   -2.8702   -0.3063    0.0000 C   0  0  0  0  0  0  0  0  0  0  0  0
   -1.4528    0.1844    0.0000 N   0  0  0  0  0  0  0  0  0  0  0  0
   -0.3191   -0.7978    0.0000 C   0  0  0  0  0  0  0  0  0  0  0  0
    1.0984   -0.3071    0.0000 C   0  0  0  0  0  0  0  0  0  0  0  0
    1.3822    1.1658    0.0000 N   0  0  0  0  0  0  0  0  0  0  0  0
    2.7996    1.6565    0.0000 C   0  0  0  0  0  0  0  0  0  0  0  0
    3.9333    0.6743    0.0000 C   0  0  0  0  0  0  0  0  0  0  0  0
    5.3508    1.1650    0.0000 C   0  0  0  0  0  0  0  0  0  0  0  0
    6.4845    0.1828    0.0000 C   0  0  0  0  0  0  0  0  0  0  0  0
    6.2007   -1.2901    0.0000 C   0  0  0  0  0  0  0  0  0  0  0  0
    7.3344   -2.2723    0.0000 C   0  0  0  0  0  0  0  0  0  0  0  0
    8.7519   -1.7816    0.0000 C   0  0  0  0  0  0  0  0  0  0  0  0
    9.0357   -0.3087    0.0000 C   0  0  0  0  0  0  0  0  0  0  0  0
    7.9020    0.6735    0.0000 C   0  0  0  0  0  0  0  0  0  0  0  0
    0.2485    2.1480    0.0000 C   0  0  0  0  0  0  0  0  0  0  0  0
   -1.1690    1.6573    0.0000 C   0  0  0  0  0  0  0  0  0  0  0  0
   -5.7052   -1.2877    0.0000 C   0  0  0  0  0  0  0  0  0  0  0  0
   -7.1226   -1.7784    0.0000 C   0  0  0  0  0  0  0  0  0  0  0  0
  1  2  1  0
  2  3  2  0
  3  4  1  0
  4  5  2  0
  5  6  1  0
  6  7  1  0
  7  8  1  0
  8  9  1  0
  9 10  1  0
 10 11  1  0
 11 12  1  0
 12 13  1  0
 13 14  1  0
 14 15  1  0
 15 16  2  0
 16 17  1  0
 17 18  2  0
 18 19  1  0
 19 20  2  0
 11 21  1  0
 21 22  1  0
  5 23  1  0
 23 24  2  0
 24  2  1  0
 22  8  1  0
 20 15  1  0
M  END
>  <ChemBL_ID>  (728) 
CHEMBL146999

>  <Compound_Key>  (728) 
14

>  <Ki>  (728) 
14.0

>  <database>  (728) 
CHEMBL

>  <Assay_ChEMBL_ID>  (728) 
CHEMBL808908

>  <Document_ChEMBL_ID>  (728) 
CHEMBL1131417

$$$$

     RDKit          2D

 18 19  0  0  0  0  0  0  0  0999 V2000
   -7.8955   -0.8134    0.0000 N   0  0  0  0  0  0  0  0  0  0  0  0
   -6.5359   -0.1797    0.0000 C   0  0  0  0  0  0  0  0  0  0  0  0
   -5.3073   -1.0404    0.0000 C   0  0  0  0  0  0  0  0  0  0  0  0
   -3.9477   -0.4067    0.0000 N   0  0  0  0  0  0  0  0  0  0  0  0
   -3.8167    1.0876    0.0000 C   0  0  0  0  0  0  0  0  0  0  0  0
   -2.4571    1.7212    0.0000 C   0  0  0  0  0  0  0  0  0  0  0  0
   -1.2286    0.8606    0.0000 N   0  0  0  0  0  0  0  0  0  0  0  0
    0.1310    1.4943    0.0000 C   0  0  0  0  0  0  0  0  0  0  0  0
    1.3596    0.6337    0.0000 C   0  0  0  0  0  0  0  0  0  0  0  0
    2.7192    1.2673    0.0000 C   0  0  0  0  0  0  0  0  0  0  0  0
    3.9477    0.4067    0.0000 C   0  0  0  0  0  0  0  0  0  0  0  0
    3.8167   -1.0876    0.0000 C   0  0  0  0  0  0  0  0  0  0  0  0
    5.0453   -1.9482    0.0000 C   0  0  0  0  0  0  0  0  0  0  0  0
    6.4048   -1.3145    0.0000 C   0  0  0  0  0  0  0  0  0  0  0  0
    6.5359    0.1797    0.0000 C   0  0  0  0  0  0  0  0  0  0  0  0
    5.3073    1.0404    0.0000 C   0  0  0  0  0  0  0  0  0  0  0  0
   -1.3596   -0.6337    0.0000 C   0  0  0  0  0  0  0  0  0  0  0  0
   -2.7192   -1.2673    0.0000 C   0  0  0  0  0  0  0  0  0  0  0  0
  1  2  1  0
  2  3  1  0
  3  4  1  0
  4  5  1  0
  5  6  1  0
  6  7  1  0
  7  8  1  0
  8  9  1  0
  9 10  1  0
 10 11  1  0
 11 12  2  0
 12 13  1  0
 13 14  2  0
 14 15  1  0
 15 16  2  0
  7 17  1  0
 17 18  1  0
 18  4  1  0
 16 11  1  0
M  END
>  <ChemBL_ID>  (729) 
CHEMBL148112

>  <Compound_Key>  (729) 
30

>  <Ki>  (729) 
188.0

>  <database>  (729) 
CHEMBL

>  <Assay_ChEMBL_ID>  (729) 
CHEMBL808908

>  <Document_ChEMBL_ID>  (729) 
CHEMBL1131417

$$$$

     RDKit          2D

 24 26  0  0  0  0  0  0  0  0999 V2000
   -4.7782   -2.2416    0.0000 N   0  0  0  0  0  0  0  0  0  0  0  0
   -5.9145   -1.2623    0.0000 C   0  0  0  0  0  0  0  0  0  0  0  0
   -7.3306   -1.7568    0.0000 C   0  0  0  0  0  0  0  0  0  0  0  0
   -8.4669   -0.7776    0.0000 C   0  0  0  0  0  0  0  0  0  0  0  0
   -8.1870    0.6961    0.0000 C   0  0  0  0  0  0  0  0  0  0  0  0
   -6.7708    1.1905    0.0000 C   0  0  0  0  0  0  0  0  0  0  0  0
   -5.6346    0.2113    0.0000 C   0  0  0  0  0  0  0  0  0  0  0  0
   -4.2184    0.7058    0.0000 C   0  0  0  0  0  0  0  0  0  0  0  0
   -3.0821   -0.2735    0.0000 C   0  0  0  0  0  0  0  0  0  0  0  0
   -1.6659    0.2210    0.0000 N   0  0  0  0  0  0  0  0  0  0  0  0
   -0.5297   -0.7582    0.0000 C   0  0  0  0  0  0  0  0  0  0  0  0
    0.8865   -0.2638    0.0000 C   0  0  0  0  0  0  0  0  0  0  0  0
    1.1664    1.2099    0.0000 N   0  0  0  0  0  0  0  0  0  0  0  0
    2.5826    1.7043    0.0000 C   0  0  0  0  0  0  0  0  0  0  0  0
    3.7188    0.7251    0.0000 C   0  0  0  0  0  0  0  0  0  0  0  0
    5.1350    1.2195    0.0000 C   0  0  0  0  0  0  0  0  0  0  0  0
    6.2713    0.2403    0.0000 C   0  0  0  0  0  0  0  0  0  0  0  0
    5.9914   -1.2334    0.0000 C   0  0  0  0  0  0  0  0  0  0  0  0
    7.1277   -2.2126    0.0000 C   0  0  0  0  0  0  0  0  0  0  0  0
    8.5438   -1.7181    0.0000 C   0  0  0  0  0  0  0  0  0  0  0  0
    8.8237   -0.2445    0.0000 C   0  0  0  0  0  0  0  0  0  0  0  0
    7.6874    0.7347    0.0000 C   0  0  0  0  0  0  0  0  0  0  0  0
    0.0301    2.1891    0.0000 C   0  0  0  0  0  0  0  0  0  0  0  0
   -1.3861    1.6946    0.0000 C   0  0  0  0  0  0  0  0  0  0  0  0
  1  2  1  0
  2  3  2  0
  3  4  1  0
  4  5  2  0
  5  6  1  0
  6  7  2  0
  7  8  1  0
  8  9  1  0
  9 10  1  0
 10 11  1  0
 11 12  1  0
 12 13  1  0
 13 14  1  0
 14 15  1  0
 15 16  1  0
 16 17  1  0
 17 18  2  0
 18 19  1  0
 19 20  2  0
 20 21  1  0
 21 22  2  0
 13 23  1  0
 23 24  1  0
  7  2  1  0
 24 10  1  0
 22 17  1  0
M  END
>  <ChemBL_ID>  (730) 
CHEMBL147370

>  <Compound_Key>  (730) 
12

>  <Ki>  (730) 
18.0

>  <database>  (730) 
CHEMBL

>  <Assay_ChEMBL_ID>  (730) 
CHEMBL808908

>  <Document_ChEMBL_ID>  (730) 
CHEMBL1131417

$$$$

     RDKit          2D

 27 29  0  0  0  0  0  0  0  0999 V2000
    2.6658    1.1257    0.0000 O   0  0  0  0  0  0  0  0  0  0  0  0
    2.2595   -0.3183    0.0000 C   0  0  0  0  0  0  0  0  0  0  0  0
    3.3069   -1.3921    0.0000 C   0  0  0  0  0  0  0  0  0  0  0  0
    4.7605   -1.0219    0.0000 C   0  0  0  0  0  0  0  0  0  0  0  0
    5.8079   -2.0957    0.0000 C   0  0  0  0  0  0  0  0  0  0  0  0
    7.2615   -1.7255    0.0000 C   0  0  0  0  0  0  0  0  0  0  0  0
    7.6677   -0.2816    0.0000 C   0  0  0  0  0  0  0  0  0  0  0  0
    6.6204    0.7922    0.0000 C   0  0  0  0  0  0  0  0  0  0  0  0
    7.0266    2.2361    0.0000 N   0  0  0  0  0  4  0  0  0  0  0  0
    5.9792    3.3099    0.0000 O   0  0  0  0  0  0  0  0  0  0  0  0
    8.4802    2.6063    0.0000 O   0  0  0  0  0  1  0  0  0  0  0  0
    5.1668    0.4220    0.0000 C   0  0  0  0  0  0  0  0  0  0  0  0
    0.8059   -0.6884    0.0000 N   0  0  0  0  0  0  0  0  0  0  0  0
   -0.2414    0.3853    0.0000 C   0  0  0  0  0  0  0  0  0  0  0  0
   -1.6951    0.0152    0.0000 C   0  0  0  0  0  0  0  0  0  0  0  0
   -2.1013   -1.4287    0.0000 N   0  0  0  0  0  0  0  0  0  0  0  0
   -3.5549   -1.7989    0.0000 C   0  0  0  0  0  0  0  0  0  0  0  0
   -4.6023   -0.7251    0.0000 C   0  0  0  0  0  0  0  0  0  0  0  0
   -6.0559   -1.0953    0.0000 C   0  0  0  0  0  0  0  0  0  0  0  0
   -7.1033   -0.0215    0.0000 C   0  0  0  0  0  0  0  0  0  0  0  0
   -6.6970    1.4225    0.0000 C   0  0  0  0  0  0  0  0  0  0  0  0
   -7.7444    2.4962    0.0000 C   0  0  0  0  0  0  0  0  0  0  0  0
   -9.1980    2.1261    0.0000 C   0  0  0  0  0  0  0  0  0  0  0  0
   -9.6042    0.6821    0.0000 C   0  0  0  0  0  0  0  0  0  0  0  0
   -8.5569   -0.3916    0.0000 C   0  0  0  0  0  0  0  0  0  0  0  0
   -1.0539   -2.5025    0.0000 C   0  0  0  0  0  0  0  0  0  0  0  0
    0.3997   -2.1324    0.0000 C   0  0  0  0  0  0  0  0  0  0  0  0
  1  2  2  0
  2  3  1  0
  3  4  1  0
  4  5  2  0
  5  6  1  0
  6  7  2  0
  7  8  1  0
  8  9  1  0
  9 10  2  0
  9 11  1  0
  8 12  2  0
  2 13  1  0
 13 14  1  0
 14 15  1  0
 15 16  1  0
 16 17  1  0
 17 18  1  0
 18 19  1  0
 19 20  1  0
 20 21  2  0
 21 22  1  0
 22 23  2  0
 23 24  1  0
 24 25  2  0
 16 26  1  0
 26 27  1  0
 12  4  1  0
 27 13  1  0
 25 20  1  0
M  CHG  2   9   1  11  -1
M  END
>  <ChemBL_ID>  (731) 
CHEMBL148377

>  <Compound_Key>  (731) 
3

>  <Ki>  (731) 
65.0

>  <database>  (731) 
CHEMBL

>  <Assay_ChEMBL_ID>  (731) 
CHEMBL808908

>  <Document_ChEMBL_ID>  (731) 
CHEMBL1131417

$$$$

     RDKit          2D

 26 28  0  0  0  0  0  0  0  0999 V2000
   -9.2316   -2.3756    0.0000 O   0  0  0  0  0  0  0  0  0  0  0  0
   -8.9053   -0.9115    0.0000 N   0  0  0  0  0  4  0  0  0  0  0  0
  -10.0100    0.1031    0.0000 O   0  0  0  0  0  1  0  0  0  0  0  0
   -7.4742   -0.4621    0.0000 C   0  0  0  0  0  0  0  0  0  0  0  0
   -7.1479    1.0020    0.0000 C   0  0  0  0  0  0  0  0  0  0  0  0
   -5.7168    1.4515    0.0000 C   0  0  0  0  0  0  0  0  0  0  0  0
   -4.6120    0.4368    0.0000 C   0  0  0  0  0  0  0  0  0  0  0  0
   -3.1809    0.8863    0.0000 C   0  0  0  0  0  0  0  0  0  0  0  0
   -2.0762   -0.1283    0.0000 C   0  0  0  0  0  0  0  0  0  0  0  0
   -0.6451    0.3211    0.0000 N   0  0  0  0  0  0  0  0  0  0  0  0
    0.4597   -0.6935    0.0000 C   0  0  0  0  0  0  0  0  0  0  0  0
    1.8908   -0.2441    0.0000 C   0  0  0  0  0  0  0  0  0  0  0  0
    2.2171    1.2200    0.0000 N   0  0  0  0  0  0  0  0  0  0  0  0
    3.6482    1.6694    0.0000 C   0  0  0  0  0  0  0  0  0  0  0  0
    4.7529    0.6548    0.0000 C   0  0  0  0  0  0  0  0  0  0  0  0
    6.1840    1.1043    0.0000 C   0  0  0  0  0  0  0  0  0  0  0  0
    7.2888    0.0896    0.0000 C   0  0  0  0  0  0  0  0  0  0  0  0
    6.9625   -1.3745    0.0000 C   0  0  0  0  0  0  0  0  0  0  0  0
    8.0673   -2.3891    0.0000 C   0  0  0  0  0  0  0  0  0  0  0  0
    9.4983   -1.9396    0.0000 C   0  0  0  0  0  0  0  0  0  0  0  0
    9.8247   -0.4756    0.0000 C   0  0  0  0  0  0  0  0  0  0  0  0
    8.7199    0.5391    0.0000 C   0  0  0  0  0  0  0  0  0  0  0  0
    1.1123    2.2346    0.0000 C   0  0  0  0  0  0  0  0  0  0  0  0
   -0.3188    1.7852    0.0000 C   0  0  0  0  0  0  0  0  0  0  0  0
   -4.9383   -1.0272    0.0000 C   0  0  0  0  0  0  0  0  0  0  0  0
   -6.3694   -1.4767    0.0000 C   0  0  0  0  0  0  0  0  0  0  0  0
  1  2  2  0
  2  3  1  0
  2  4  1  0
  4  5  2  0
  5  6  1  0
  6  7  2  0
  7  8  1  0
  8  9  1  0
  9 10  1  0
 10 11  1  0
 11 12  1  0
 12 13  1  0
 13 14  1  0
 14 15  1  0
 15 16  1  0
 16 17  1  0
 17 18  2  0
 18 19  1  0
 19 20  2  0
 20 21  1  0
 21 22  2  0
 13 23  1  0
 23 24  1  0
  7 25  1  0
 25 26  2  0
 26  4  1  0
 24 10  1  0
 22 17  1  0
M  CHG  2   2   1   3  -1
M  END
>  <ChemBL_ID>  (732) 
CHEMBL148008

>  <Compound_Key>  (732) 
11

>  <Ki>  (732) 
25.0

>  <database>  (732) 
CHEMBL

>  <Assay_ChEMBL_ID>  (732) 
CHEMBL808908

>  <Document_ChEMBL_ID>  (732) 
CHEMBL1131417

$$$$

     RDKit          2D

 25 27  0  0  0  0  0  0  0  0999 V2000
   -9.4062   -0.8947    0.0000 Cl  0  0  0  0  0  0  0  0  0  0  0  0
   -7.9756   -0.4437    0.0000 C   0  0  0  0  0  0  0  0  0  0  0  0
   -7.6508    1.0207    0.0000 C   0  0  0  0  0  0  0  0  0  0  0  0
   -6.2202    1.4717    0.0000 C   0  0  0  0  0  0  0  0  0  0  0  0
   -5.1143    0.4582    0.0000 C   0  0  0  0  0  0  0  0  0  0  0  0
   -3.6837    0.9091    0.0000 C   0  0  0  0  0  0  0  0  0  0  0  0
   -2.5779   -0.1043    0.0000 C   0  0  0  0  0  0  0  0  0  0  0  0
   -1.1473    0.3466    0.0000 N   0  0  0  0  0  0  0  0  0  0  0  0
   -0.0414   -0.6668    0.0000 C   0  0  0  0  0  0  0  0  0  0  0  0
    1.3892   -0.2159    0.0000 C   0  0  0  0  0  0  0  0  0  0  0  0
    1.7139    1.2485    0.0000 N   0  0  0  0  0  0  0  0  0  0  0  0
    3.1445    1.6995    0.0000 C   0  0  0  0  0  0  0  0  0  0  0  0
    4.2504    0.6860    0.0000 C   0  0  0  0  0  0  0  0  0  0  0  0
    5.6810    1.1370    0.0000 C   0  0  0  0  0  0  0  0  0  0  0  0
    6.7868    0.1235    0.0000 C   0  0  0  0  0  0  0  0  0  0  0  0
    6.4621   -1.3409    0.0000 C   0  0  0  0  0  0  0  0  0  0  0  0
    7.5679   -2.3544    0.0000 C   0  0  0  0  0  0  0  0  0  0  0  0
    8.9985   -1.9034    0.0000 C   0  0  0  0  0  0  0  0  0  0  0  0
    9.3233   -0.4390    0.0000 C   0  0  0  0  0  0  0  0  0  0  0  0
    8.2174    0.5744    0.0000 C   0  0  0  0  0  0  0  0  0  0  0  0
    0.6081    2.2620    0.0000 C   0  0  0  0  0  0  0  0  0  0  0  0
   -0.8225    1.8110    0.0000 C   0  0  0  0  0  0  0  0  0  0  0  0
   -5.4391   -1.0062    0.0000 C   0  0  0  0  0  0  0  0  0  0  0  0
   -6.8697   -1.4572    0.0000 C   0  0  0  0  0  0  0  0  0  0  0  0
   -7.1945   -2.9216    0.0000 Cl  0  0  0  0  0  0  0  0  0  0  0  0
  1  2  1  0
  2  3  2  0
  3  4  1  0
  4  5  2  0
  5  6  1  0
  6  7  1  0
  7  8  1  0
  8  9  1  0
  9 10  1  0
 10 11  1  0
 11 12  1  0
 12 13  1  0
 13 14  1  0
 14 15  1  0
 15 16  2  0
 16 17  1  0
 17 18  2  0
 18 19  1  0
 19 20  2  0
 11 21  1  0
 21 22  1  0
  5 23  1  0
 23 24  2  0
 24 25  1  0
 24  2  1  0
 22  8  1  0
 20 15  1  0
M  END
>  <ChemBL_ID>  (733) 
CHEMBL343654

>  <Compound_Key>  (733) 
8

>  <Ki>  (733) 
39.0

>  <database>  (733) 
CHEMBL

>  <Assay_ChEMBL_ID>  (733) 
CHEMBL808908

>  <Document_ChEMBL_ID>  (733) 
CHEMBL1131417

$$$$

     RDKit          2D

 20 21  0  0  0  0  0  0  0  0999 V2000
   -9.5084   -0.4627    0.0000 N   0  0  0  0  0  0  0  0  0  0  0  0
   -8.1425    0.1571    0.0000 C   0  0  0  0  0  0  0  0  0  0  0  0
   -6.9227   -0.7160    0.0000 C   0  0  0  0  0  0  0  0  0  0  0  0
   -5.5568   -0.0962    0.0000 C   0  0  0  0  0  0  0  0  0  0  0  0
   -4.3370   -0.9693    0.0000 C   0  0  0  0  0  0  0  0  0  0  0  0
   -2.9711   -0.3495    0.0000 N   0  0  0  0  0  0  0  0  0  0  0  0
   -2.8248    1.1434    0.0000 C   0  0  0  0  0  0  0  0  0  0  0  0
   -1.4589    1.7631    0.0000 C   0  0  0  0  0  0  0  0  0  0  0  0
   -0.2391    0.8901    0.0000 N   0  0  0  0  0  0  0  0  0  0  0  0
    1.1268    1.5098    0.0000 C   0  0  0  0  0  0  0  0  0  0  0  0
    2.3466    0.6368    0.0000 C   0  0  0  0  0  0  0  0  0  0  0  0
    3.7125    1.2565    0.0000 C   0  0  0  0  0  0  0  0  0  0  0  0
    4.9323    0.3835    0.0000 C   0  0  0  0  0  0  0  0  0  0  0  0
    4.7860   -1.1094    0.0000 C   0  0  0  0  0  0  0  0  0  0  0  0
    6.0058   -1.9825    0.0000 C   0  0  0  0  0  0  0  0  0  0  0  0
    7.3717   -1.3627    0.0000 C   0  0  0  0  0  0  0  0  0  0  0  0
    7.5180    0.1302    0.0000 C   0  0  0  0  0  0  0  0  0  0  0  0
    6.2982    1.0032    0.0000 C   0  0  0  0  0  0  0  0  0  0  0  0
   -0.3854   -0.6028    0.0000 C   0  0  0  0  0  0  0  0  0  0  0  0
   -1.7513   -1.2226    0.0000 C   0  0  0  0  0  0  0  0  0  0  0  0
  1  2  1  0
  2  3  1  0
  3  4  1  0
  4  5  1  0
  5  6  1  0
  6  7  1  0
  7  8  1  0
  8  9  1  0
  9 10  1  0
 10 11  1  0
 11 12  1  0
 12 13  1  0
 13 14  2  0
 14 15  1  0
 15 16  2  0
 16 17  1  0
 17 18  2  0
  9 19  1  0
 19 20  1  0
 20  6  1  0
 18 13  1  0
M  END
>  <ChemBL_ID>  (734) 
CHEMBL144072

>  <Compound_Key>  (734) 
32

>  <Ki>  (734) 
999.0

>  <database>  (734) 
CHEMBL

>  <Assay_ChEMBL_ID>  (734) 
CHEMBL808908

>  <Document_ChEMBL_ID>  (734) 
CHEMBL1131417

$$$$

     RDKit          2D

 25 27  0  0  0  0  0  0  0  0999 V2000
   -4.9436   -3.4437    0.0000 C   0  0  0  0  0  0  0  0  0  0  0  0
   -4.6269   -1.9776    0.0000 O   0  0  0  0  0  0  0  0  0  0  0  0
   -5.7383   -0.9702    0.0000 C   0  0  0  0  0  0  0  0  0  0  0  0
   -7.1664   -1.4289    0.0000 C   0  0  0  0  0  0  0  0  0  0  0  0
   -8.2777   -0.4215    0.0000 C   0  0  0  0  0  0  0  0  0  0  0  0
   -7.9610    1.0446    0.0000 C   0  0  0  0  0  0  0  0  0  0  0  0
   -6.5329    1.5034    0.0000 C   0  0  0  0  0  0  0  0  0  0  0  0
   -5.4215    0.4960    0.0000 C   0  0  0  0  0  0  0  0  0  0  0  0
   -3.9934    0.9548    0.0000 C   0  0  0  0  0  0  0  0  0  0  0  0
   -2.8820   -0.0526    0.0000 C   0  0  0  0  0  0  0  0  0  0  0  0
   -1.4539    0.4062    0.0000 N   0  0  0  0  0  0  0  0  0  0  0  0
   -0.3425   -0.6012    0.0000 C   0  0  0  0  0  0  0  0  0  0  0  0
    1.0856   -0.1425    0.0000 C   0  0  0  0  0  0  0  0  0  0  0  0
    1.4023    1.3237    0.0000 N   0  0  0  0  0  0  0  0  0  0  0  0
    2.8305    1.7825    0.0000 C   0  0  0  0  0  0  0  0  0  0  0  0
    3.9418    0.7751    0.0000 C   0  0  0  0  0  0  0  0  0  0  0  0
    5.3699    1.2339    0.0000 C   0  0  0  0  0  0  0  0  0  0  0  0
    6.4813    0.2265    0.0000 C   0  0  0  0  0  0  0  0  0  0  0  0
    6.1646   -1.2397    0.0000 C   0  0  0  0  0  0  0  0  0  0  0  0
    7.2759   -2.2471    0.0000 C   0  0  0  0  0  0  0  0  0  0  0  0
    8.7041   -1.7883    0.0000 C   0  0  0  0  0  0  0  0  0  0  0  0
    9.0208   -0.3221    0.0000 C   0  0  0  0  0  0  0  0  0  0  0  0
    7.9094    0.6853    0.0000 C   0  0  0  0  0  0  0  0  0  0  0  0
    0.2910    2.3311    0.0000 C   0  0  0  0  0  0  0  0  0  0  0  0
   -1.1372    1.8723    0.0000 C   0  0  0  0  0  0  0  0  0  0  0  0
  1  2  1  0
  2  3  1  0
  3  4  2  0
  4  5  1  0
  5  6  2  0
  6  7  1  0
  7  8  2  0
  8  9  1  0
  9 10  1  0
 10 11  1  0
 11 12  1  0
 12 13  1  0
 13 14  1  0
 14 15  1  0
 15 16  1  0
 16 17  1  0
 17 18  1  0
 18 19  2  0
 19 20  1  0
 20 21  2  0
 21 22  1  0
 22 23  2  0
 14 24  1  0
 24 25  1  0
  8  3  1  0
 25 11  1  0
 23 18  1  0
M  END
>  <ChemBL_ID>  (735) 
CHEMBL147779

>  <Compound_Key>  (735) 
15

>  <Ki>  (735) 
7.5

>  <database>  (735) 
CHEMBL

>  <Assay_ChEMBL_ID>  (735) 
CHEMBL808908

>  <Document_ChEMBL_ID>  (735) 
CHEMBL1131417

$$$$

     RDKit          2D

 26 28  0  0  0  0  0  0  0  0999 V2000
   -5.7049   -3.1944    0.0000 C   0  0  0  0  0  0  0  0  0  0  0  0
   -5.0908   -1.8259    0.0000 O   0  0  0  0  0  0  0  0  0  0  0  0
   -5.9689   -0.6098    0.0000 C   0  0  0  0  0  0  0  0  0  0  0  0
   -7.4612   -0.7622    0.0000 C   0  0  0  0  0  0  0  0  0  0  0  0
   -8.3393    0.4539    0.0000 C   0  0  0  0  0  0  0  0  0  0  0  0
   -7.7252    1.8224    0.0000 C   0  0  0  0  0  0  0  0  0  0  0  0
   -6.2330    1.9749    0.0000 C   0  0  0  0  0  0  0  0  0  0  0  0
   -5.3548    0.7588    0.0000 C   0  0  0  0  0  0  0  0  0  0  0  0
   -3.8626    0.9112    0.0000 C   0  0  0  0  0  0  0  0  0  0  0  0
   -2.9845   -0.3049    0.0000 C   0  0  0  0  0  0  0  0  0  0  0  0
   -1.4922   -0.1524    0.0000 N   0  0  0  0  0  0  0  0  0  0  0  0
   -0.6141   -1.3685    0.0000 C   0  0  0  0  0  0  0  0  0  0  0  0
    0.8781   -1.2161    0.0000 C   0  0  0  0  0  0  0  0  0  0  0  0
    1.4922    0.1524    0.0000 N   0  0  0  0  0  0  0  0  0  0  0  0
    2.9845    0.3049    0.0000 C   0  0  0  0  0  0  0  0  0  0  0  0
    3.8626   -0.9112    0.0000 C   0  0  0  0  0  0  0  0  0  0  0  0
    5.3548   -0.7588    0.0000 C   0  0  0  0  0  0  0  0  0  0  0  0
    6.2330   -1.9749    0.0000 C   0  0  0  0  0  0  0  0  0  0  0  0
    7.7252   -1.8224    0.0000 C   0  0  0  0  0  0  0  0  0  0  0  0
    8.3393   -0.4539    0.0000 C   0  0  0  0  0  0  0  0  0  0  0  0
    7.4612    0.7622    0.0000 C   0  0  0  0  0  0  0  0  0  0  0  0
    5.9689    0.6098    0.0000 C   0  0  0  0  0  0  0  0  0  0  0  0
    5.0908    1.8259    0.0000 O   0  0  0  0  0  0  0  0  0  0  0  0
    5.7049    3.1944    0.0000 C   0  0  0  0  0  0  0  0  0  0  0  0
    0.6141    1.3685    0.0000 C   0  0  0  0  0  0  0  0  0  0  0  0
   -0.8781    1.2161    0.0000 C   0  0  0  0  0  0  0  0  0  0  0  0
  1  2  1  0
  2  3  1  0
  3  4  2  0
  4  5  1  0
  5  6  2  0
  6  7  1  0
  7  8  2  0
  8  9  1  0
  9 10  1  0
 10 11  1  0
 11 12  1  0
 12 13  1  0
 13 14  1  0
 14 15  1  0
 15 16  1  0
 16 17  1  0
 17 18  2  0
 18 19  1  0
 19 20  2  0
 20 21  1  0
 21 22  2  0
 22 23  1  0
 23 24  1  0
 14 25  1  0
 25 26  1  0
  8  3  1  0
 26 11  1  0
 22 17  1  0
M  END
>  <ChemBL_ID>  (736) 
CHEMBL144393

>  <Compound_Key>  (736) 
21

>  <Ki>  (736) 
17.0

>  <database>  (736) 
CHEMBL

>  <Assay_ChEMBL_ID>  (736) 
CHEMBL808908

>  <Document_ChEMBL_ID>  (736) 
CHEMBL1131417

$$$$

     RDKit          2D

 28 31  0  0  0  0  0  0  0  0999 V2000
   -9.4412   -0.7941    0.0000 C   0  0  0  0  0  0  0  0  0  0  0  0
   -8.0048   -1.2261    0.0000 O   0  0  0  0  0  0  0  0  0  0  0  0
   -6.9124   -0.1981    0.0000 C   0  0  0  0  0  0  0  0  0  0  0  0
   -7.2565    1.2619    0.0000 C   0  0  0  0  0  0  0  0  0  0  0  0
   -6.1642    2.2899    0.0000 C   0  0  0  0  0  0  0  0  0  0  0  0
   -4.7277    1.8579    0.0000 C   0  0  0  0  0  0  0  0  0  0  0  0
   -4.3836    0.3979    0.0000 C   0  0  0  0  0  0  0  0  0  0  0  0
   -5.4760   -0.6301    0.0000 C   0  0  0  0  0  0  0  0  0  0  0  0
   -5.1319   -2.0901    0.0000 C   0  0  0  0  0  0  0  0  0  0  0  0
   -3.6955   -2.5221    0.0000 C   0  0  0  0  0  0  0  0  0  0  0  0
   -2.6031   -1.4941    0.0000 C   0  0  0  0  0  0  0  0  0  0  0  0
   -2.9472   -0.0341    0.0000 C   0  0  0  0  0  0  0  0  0  0  0  0
   -1.8549    0.9939    0.0000 N   0  0  0  0  0  0  0  0  0  0  0  0
   -0.4184    0.5619    0.0000 C   0  0  0  0  0  0  0  0  0  0  0  0
   -0.0743   -0.8981    0.0000 O   0  0  0  0  0  0  0  0  0  0  0  0
    0.6739    1.5899    0.0000 C   0  0  0  0  0  0  0  0  0  0  0  0
    2.1104    1.1579    0.0000 N   0  0  0  0  0  0  0  0  0  0  0  0
    2.4545   -0.3021    0.0000 C   0  0  0  0  0  0  0  0  0  0  0  0
    3.8909   -0.7342    0.0000 C   0  0  0  0  0  0  0  0  0  0  0  0
    4.9833    0.2938    0.0000 N   0  0  0  0  0  0  0  0  0  0  0  0
    6.4197   -0.1382    0.0000 C   0  0  0  0  0  0  0  0  0  0  0  0
    6.7638   -1.5982    0.0000 C   0  0  0  0  0  0  0  0  0  0  0  0
    8.2003   -2.0302    0.0000 C   0  0  0  0  0  0  0  0  0  0  0  0
    9.2926   -1.0022    0.0000 C   0  0  0  0  0  0  0  0  0  0  0  0
    8.9485    0.4578    0.0000 C   0  0  0  0  0  0  0  0  0  0  0  0
    7.5121    0.8898    0.0000 C   0  0  0  0  0  0  0  0  0  0  0  0
    4.6392    1.7538    0.0000 C   0  0  0  0  0  0  0  0  0  0  0  0
    3.2027    2.1858    0.0000 C   0  0  0  0  0  0  0  0  0  0  0  0
  1  2  1  0
  2  3  1  0
  3  4  2  0
  4  5  1  0
  5  6  2  0
  6  7  1  0
  7  8  2  0
  8  9  1  0
  9 10  1  0
 10 11  1  0
 11 12  1  0
 12 13  1  1
 13 14  1  0
 14 15  2  0
 14 16  1  0
 16 17  1  0
 17 18  1  0
 18 19  1  0
 19 20  1  0
 20 21  1  0
 21 22  1  0
 22 23  1  0
 23 24  1  0
 24 25  1  0
 25 26  1  0
 20 27  1  0
 27 28  1  0
  8  3  1  0
 28 17  1  0
 12  7  1  0
 26 21  1  0
M  END
>  <ChemBL_ID>  (737) 
CHEMBL1672032

>  <Compound_Key>  (737) 
(-)(S)-2054

>  <Ki>  (737) 
5.92

>  <database>  (737) 
SRSLDB

>  <Document_ChEMBL_ID>  (737) 
10.1016/j.bioorg.2021.105163

$$$$

     RDKit          2D

 21 22  0  0  0  0  0  0  0  0999 V2000
   -9.3000   -0.1586    0.0000 N   0  0  0  0  0  0  0  0  0  0  0  0
   -7.9219    0.4336    0.0000 C   0  0  0  0  0  0  0  0  0  0  0  0
   -6.7199   -0.4638    0.0000 C   0  0  0  0  0  0  0  0  0  0  0  0
   -5.3418    0.1284    0.0000 C   0  0  0  0  0  0  0  0  0  0  0  0
   -4.1398   -0.7690    0.0000 C   0  0  0  0  0  0  0  0  0  0  0  0
   -4.3160   -2.2586    0.0000 O   0  0  0  0  0  0  0  0  0  0  0  0
   -2.7617   -0.1768    0.0000 N   0  0  0  0  0  0  0  0  0  0  0  0
   -2.5855    1.3128    0.0000 C   0  0  0  0  0  0  0  0  0  0  0  0
   -1.2073    1.9050    0.0000 C   0  0  0  0  0  0  0  0  0  0  0  0
   -0.0054    1.0076    0.0000 N   0  0  0  0  0  0  0  0  0  0  0  0
    1.3728    1.5998    0.0000 C   0  0  0  0  0  0  0  0  0  0  0  0
    2.5747    0.7024    0.0000 C   0  0  0  0  0  0  0  0  0  0  0  0
    3.9528    1.2946    0.0000 C   0  0  0  0  0  0  0  0  0  0  0  0
    5.1548    0.3972    0.0000 C   0  0  0  0  0  0  0  0  0  0  0  0
    4.9786   -1.0924    0.0000 C   0  0  0  0  0  0  0  0  0  0  0  0
    6.1805   -1.9898    0.0000 C   0  0  0  0  0  0  0  0  0  0  0  0
    7.5587   -1.3976    0.0000 C   0  0  0  0  0  0  0  0  0  0  0  0
    7.7349    0.0920    0.0000 C   0  0  0  0  0  0  0  0  0  0  0  0
    6.5329    0.9894    0.0000 C   0  0  0  0  0  0  0  0  0  0  0  0
   -0.1816   -0.4820    0.0000 C   0  0  0  0  0  0  0  0  0  0  0  0
   -1.5597   -1.0742    0.0000 C   0  0  0  0  0  0  0  0  0  0  0  0
  1  2  1  0
  2  3  1  0
  3  4  1  0
  4  5  1  0
  5  6  2  0
  5  7  1  0
  7  8  1  0
  8  9  1  0
  9 10  1  0
 10 11  1  0
 11 12  1  0
 12 13  1  0
 13 14  1  0
 14 15  2  0
 15 16  1  0
 16 17  2  0
 17 18  1  0
 18 19  2  0
 10 20  1  0
 20 21  1  0
 21  7  1  0
 19 14  1  0
M  END
>  <ChemBL_ID>  (738) 
CHEMBL148164

>  <Compound_Key>  (738) 
29

>  <Ki>  (738) 
3839.0

>  <database>  (738) 
CHEMBL

>  <Assay_ChEMBL_ID>  (738) 
CHEMBL808908

>  <Document_ChEMBL_ID>  (738) 
CHEMBL1131417

$$$$

     RDKit          2D

 19 20  0  0  0  0  0  0  0  0999 V2000
   -8.6438    0.0362    0.0000 N   0  0  0  0  0  0  0  0  0  0  0  0
   -7.4144   -0.8232    0.0000 C   0  0  0  0  0  0  0  0  0  0  0  0
   -6.0555   -0.1882    0.0000 C   0  0  0  0  0  0  0  0  0  0  0  0
   -4.8261   -1.0476    0.0000 C   0  0  0  0  0  0  0  0  0  0  0  0
   -3.4671   -0.4126    0.0000 N   0  0  0  0  0  0  0  0  0  0  0  0
   -3.3376    1.0818    0.0000 C   0  0  0  0  0  0  0  0  0  0  0  0
   -1.9786    1.7168    0.0000 C   0  0  0  0  0  0  0  0  0  0  0  0
   -0.7492    0.8574    0.0000 N   0  0  0  0  0  0  0  0  0  0  0  0
    0.6098    1.4924    0.0000 C   0  0  0  0  0  0  0  0  0  0  0  0
    1.8392    0.6330    0.0000 C   0  0  0  0  0  0  0  0  0  0  0  0
    3.1981    1.2680    0.0000 C   0  0  0  0  0  0  0  0  0  0  0  0
    4.4275    0.4086    0.0000 C   0  0  0  0  0  0  0  0  0  0  0  0
    4.2980   -1.0858    0.0000 C   0  0  0  0  0  0  0  0  0  0  0  0
    5.5274   -1.9452    0.0000 C   0  0  0  0  0  0  0  0  0  0  0  0
    6.8863   -1.3102    0.0000 C   0  0  0  0  0  0  0  0  0  0  0  0
    7.0159    0.1842    0.0000 C   0  0  0  0  0  0  0  0  0  0  0  0
    5.7865    1.0436    0.0000 C   0  0  0  0  0  0  0  0  0  0  0  0
   -0.8788   -0.6370    0.0000 C   0  0  0  0  0  0  0  0  0  0  0  0
   -2.2377   -1.2720    0.0000 C   0  0  0  0  0  0  0  0  0  0  0  0
  1  2  1  0
  2  3  1  0
  3  4  1  0
  4  5  1  0
  5  6  1  0
  6  7  1  0
  7  8  1  0
  8  9  1  0
  9 10  1  0
 10 11  1  0
 11 12  1  0
 12 13  2  0
 13 14  1  0
 14 15  2  0
 15 16  1  0
 16 17  2  0
  8 18  1  0
 18 19  1  0
 19  5  1  0
 17 12  1  0
M  END
>  <ChemBL_ID>  (739) 
CHEMBL424114

>  <Compound_Key>  (739) 
31

>  <Ki>  (739) 
2000.0

>  <database>  (739) 
CHEMBL

>  <Assay_ChEMBL_ID>  (739) 
CHEMBL808908

>  <Document_ChEMBL_ID>  (739) 
CHEMBL1131417

$$$$

     RDKit          2D

 26 28  0  0  0  0  0  0  0  0999 V2000
   -6.0691   -3.3760    0.0000 O   0  0  0  0  0  0  0  0  0  0  0  0
   -7.1205   -2.3062    0.0000 N   0  0  0  0  0  4  0  0  0  0  0  0
   -8.5727   -2.6818    0.0000 O   0  0  0  0  0  1  0  0  0  0  0  0
   -6.7197   -0.8607    0.0000 C   0  0  0  0  0  0  0  0  0  0  0  0
   -7.7711    0.2092    0.0000 C   0  0  0  0  0  0  0  0  0  0  0  0
   -7.3703    1.6546    0.0000 C   0  0  0  0  0  0  0  0  0  0  0  0
   -5.9181    2.0302    0.0000 C   0  0  0  0  0  0  0  0  0  0  0  0
   -4.8667    0.9604    0.0000 C   0  0  0  0  0  0  0  0  0  0  0  0
   -3.4145    1.3360    0.0000 C   0  0  0  0  0  0  0  0  0  0  0  0
   -2.3631    0.2661    0.0000 C   0  0  0  0  0  0  0  0  0  0  0  0
   -0.9109    0.6417    0.0000 N   0  0  0  0  0  0  0  0  0  0  0  0
    0.1405   -0.4281    0.0000 C   0  0  0  0  0  0  0  0  0  0  0  0
    1.5927   -0.0525    0.0000 C   0  0  0  0  0  0  0  0  0  0  0  0
    1.9936    1.3929    0.0000 N   0  0  0  0  0  0  0  0  0  0  0  0
    3.4458    1.7686    0.0000 C   0  0  0  0  0  0  0  0  0  0  0  0
    4.4972    0.6987    0.0000 C   0  0  0  0  0  0  0  0  0  0  0  0
    5.9494    1.0743    0.0000 C   0  0  0  0  0  0  0  0  0  0  0  0
    7.0008    0.0045    0.0000 C   0  0  0  0  0  0  0  0  0  0  0  0
    6.5999   -1.4410    0.0000 C   0  0  0  0  0  0  0  0  0  0  0  0
    7.6513   -2.5108    0.0000 C   0  0  0  0  0  0  0  0  0  0  0  0
    9.1035   -2.1352    0.0000 C   0  0  0  0  0  0  0  0  0  0  0  0
    9.5044   -0.6898    0.0000 C   0  0  0  0  0  0  0  0  0  0  0  0
    8.4530    0.3801    0.0000 C   0  0  0  0  0  0  0  0  0  0  0  0
    0.9422    2.4628    0.0000 C   0  0  0  0  0  0  0  0  0  0  0  0
   -0.5100    2.0872    0.0000 C   0  0  0  0  0  0  0  0  0  0  0  0
   -5.2675   -0.4851    0.0000 C   0  0  0  0  0  0  0  0  0  0  0  0
  1  2  2  0
  2  3  1  0
  2  4  1  0
  4  5  2  0
  5  6  1  0
  6  7  2  0
  7  8  1  0
  8  9  1  0
  9 10  1  0
 10 11  1  0
 11 12  1  0
 12 13  1  0
 13 14  1  0
 14 15  1  0
 15 16  1  0
 16 17  1  0
 17 18  1  0
 18 19  2  0
 19 20  1  0
 20 21  2  0
 21 22  1  0
 22 23  2  0
 14 24  1  0
 24 25  1  0
  8 26  2  0
 26  4  1  0
 25 11  1  0
 23 18  1  0
M  CHG  2   2   1   3  -1
M  END
>  <ChemBL_ID>  (740) 
CHEMBL144741

>  <Compound_Key>  (740) 
10

>  <Ki>  (740) 
9.4

>  <database>  (740) 
CHEMBL

>  <Assay_ChEMBL_ID>  (740) 
CHEMBL808908

>  <Document_ChEMBL_ID>  (740) 
CHEMBL1131417

$$$$

     RDKit          2D

 27 29  0  0  0  0  0  0  0  0999 V2000
  -10.9269    0.5388    0.0000 C   0  0  0  0  0  0  0  0  0  0  0  0
   -9.9497   -0.5992    0.0000 O   0  0  0  0  0  0  0  0  0  0  0  0
   -8.4755   -0.3218    0.0000 C   0  0  0  0  0  0  0  0  0  0  0  0
   -7.9787    1.0935    0.0000 C   0  0  0  0  0  0  0  0  0  0  0  0
   -6.5045    1.3709    0.0000 C   0  0  0  0  0  0  0  0  0  0  0  0
   -5.5273    0.2329    0.0000 C   0  0  0  0  0  0  0  0  0  0  0  0
   -4.0531    0.5103    0.0000 C   0  0  0  0  0  0  0  0  0  0  0  0
   -3.0759   -0.6277    0.0000 C   0  0  0  0  0  0  0  0  0  0  0  0
   -1.6017   -0.3503    0.0000 N   0  0  0  0  0  0  0  0  0  0  0  0
   -0.6245   -1.4883    0.0000 C   0  0  0  0  0  0  0  0  0  0  0  0
    0.8497   -1.2109    0.0000 C   0  0  0  0  0  0  0  0  0  0  0  0
    1.3465    0.2044    0.0000 N   0  0  0  0  0  0  0  0  0  0  0  0
    2.8207    0.4818    0.0000 C   0  0  0  0  0  0  0  0  0  0  0  0
    3.3175    1.8971    0.0000 O   0  0  0  0  0  0  0  0  0  0  0  0
    3.7979   -0.6562    0.0000 C   0  0  0  0  0  0  0  0  0  0  0  0
    5.2721   -0.3788    0.0000 C   0  0  0  0  0  0  0  0  0  0  0  0
    6.2493   -1.5168    0.0000 C   0  0  0  0  0  0  0  0  0  0  0  0
    7.7235   -1.2394    0.0000 C   0  0  0  0  0  0  0  0  0  0  0  0
    8.2203    0.1759    0.0000 C   0  0  0  0  0  0  0  0  0  0  0  0
    9.6945    0.4532    0.0000 O   0  0  0  0  0  0  0  0  0  0  0  0
   10.6717   -0.6847    0.0000 C   0  0  0  0  0  0  0  0  0  0  0  0
    7.2431    1.3138    0.0000 C   0  0  0  0  0  0  0  0  0  0  0  0
    5.7689    1.0365    0.0000 C   0  0  0  0  0  0  0  0  0  0  0  0
    0.3693    1.3424    0.0000 C   0  0  0  0  0  0  0  0  0  0  0  0
   -1.1049    1.0650    0.0000 C   0  0  0  0  0  0  0  0  0  0  0  0
   -6.0241   -1.1824    0.0000 C   0  0  0  0  0  0  0  0  0  0  0  0
   -7.4983   -1.4598    0.0000 C   0  0  0  0  0  0  0  0  0  0  0  0
  1  2  1  0
  2  3  1  0
  3  4  2  0
  4  5  1  0
  5  6  2  0
  6  7  1  0
  7  8  1  0
  8  9  1  0
  9 10  1  0
 10 11  1  0
 11 12  1  0
 12 13  1  0
 13 14  2  0
 13 15  1  0
 15 16  1  0
 16 17  2  0
 17 18  1  0
 18 19  2  0
 19 20  1  0
 20 21  1  0
 19 22  1  0
 22 23  2  0
 12 24  1  0
 24 25  1  0
  6 26  1  0
 26 27  2  0
 27  3  1  0
 25  9  1  0
 23 16  1  0
M  END
>  <ChemBL_ID>  (741) 
CHEMBL144394

>  <Compound_Key>  (741) 
20

>  <Ki>  (741) 
744.0

>  <database>  (741) 
CHEMBL

>  <Assay_ChEMBL_ID>  (741) 
CHEMBL808908

>  <Document_ChEMBL_ID>  (741) 
CHEMBL1131417

$$$$

     RDKit          2D

 20 21  0  0  0  0  0  0  0  0999 V2000
   -8.3883    0.3956    0.0000 N   0  0  0  0  0  0  0  0  0  0  0  0
   -7.1832   -0.4975    0.0000 C   0  0  0  0  0  0  0  0  0  0  0  0
   -5.8072    0.0997    0.0000 C   0  0  0  0  0  0  0  0  0  0  0  0
   -4.6020   -0.7934    0.0000 C   0  0  0  0  0  0  0  0  0  0  0  0
   -4.7729   -2.2837    0.0000 O   0  0  0  0  0  0  0  0  0  0  0  0
   -3.2260   -0.1963    0.0000 N   0  0  0  0  0  0  0  0  0  0  0  0
   -3.0551    1.2939    0.0000 C   0  0  0  0  0  0  0  0  0  0  0  0
   -1.6791    1.8911    0.0000 C   0  0  0  0  0  0  0  0  0  0  0  0
   -0.4740    0.9980    0.0000 N   0  0  0  0  0  0  0  0  0  0  0  0
    0.9020    1.5951    0.0000 C   0  0  0  0  0  0  0  0  0  0  0  0
    2.1072    0.7020    0.0000 C   0  0  0  0  0  0  0  0  0  0  0  0
    3.4832    1.2992    0.0000 C   0  0  0  0  0  0  0  0  0  0  0  0
    4.6884    0.4061    0.0000 C   0  0  0  0  0  0  0  0  0  0  0  0
    4.5175   -1.0842    0.0000 C   0  0  0  0  0  0  0  0  0  0  0  0
    5.7226   -1.9773    0.0000 C   0  0  0  0  0  0  0  0  0  0  0  0
    7.0987   -1.3801    0.0000 C   0  0  0  0  0  0  0  0  0  0  0  0
    7.2695    0.1101    0.0000 C   0  0  0  0  0  0  0  0  0  0  0  0
    6.0644    1.0032    0.0000 C   0  0  0  0  0  0  0  0  0  0  0  0
   -0.6448   -0.4922    0.0000 C   0  0  0  0  0  0  0  0  0  0  0  0
   -2.0209   -1.0894    0.0000 C   0  0  0  0  0  0  0  0  0  0  0  0
  1  2  1  0
  2  3  1  0
  3  4  1  0
  4  5  2  0
  4  6  1  0
  6  7  1  0
  7  8  1  0
  8  9  1  0
  9 10  1  0
 10 11  1  0
 11 12  1  0
 12 13  1  0
 13 14  2  0
 14 15  1  0
 15 16  2  0
 16 17  1  0
 17 18  2  0
  9 19  1  0
 19 20  1  0
 20  6  1  0
 18 13  1  0
M  END
>  <ChemBL_ID>  (742) 
CHEMBL356738

>  <Compound_Key>  (742) 
28

>  <Ki>  (742) 
1783.0

>  <database>  (742) 
CHEMBL

>  <Assay_ChEMBL_ID>  (742) 
CHEMBL808908

>  <Document_ChEMBL_ID>  (742) 
CHEMBL1131417

$$$$

     RDKit          2D

 19 20  0  0  0  0  0  0  0  0999 V2000
   -7.6290   -0.4024    0.0000 N   0  0  0  0  0  0  0  0  0  0  0  0
   -6.2472    0.1813    0.0000 C   0  0  0  0  0  0  0  0  0  0  0  0
   -5.0508   -0.7235    0.0000 C   0  0  0  0  0  0  0  0  0  0  0  0
   -5.2362   -2.2120    0.0000 O   0  0  0  0  0  0  0  0  0  0  0  0
   -3.6690   -0.1398    0.0000 N   0  0  0  0  0  0  0  0  0  0  0  0
   -3.4837    1.3487    0.0000 C   0  0  0  0  0  0  0  0  0  0  0  0
   -2.1019    1.9325    0.0000 C   0  0  0  0  0  0  0  0  0  0  0  0
   -0.9055    1.0277    0.0000 N   0  0  0  0  0  0  0  0  0  0  0  0
    0.4763    1.6114    0.0000 C   0  0  0  0  0  0  0  0  0  0  0  0
    1.6727    0.7066    0.0000 C   0  0  0  0  0  0  0  0  0  0  0  0
    3.0544    1.2903    0.0000 C   0  0  0  0  0  0  0  0  0  0  0  0
    4.2508    0.3855    0.0000 C   0  0  0  0  0  0  0  0  0  0  0  0
    4.0655   -1.1030    0.0000 C   0  0  0  0  0  0  0  0  0  0  0  0
    5.2618   -2.0078    0.0000 C   0  0  0  0  0  0  0  0  0  0  0  0
    6.6436   -1.4240    0.0000 C   0  0  0  0  0  0  0  0  0  0  0  0
    6.8290    0.0645    0.0000 C   0  0  0  0  0  0  0  0  0  0  0  0
    5.6326    0.9692    0.0000 C   0  0  0  0  0  0  0  0  0  0  0  0
   -1.0909   -0.4608    0.0000 C   0  0  0  0  0  0  0  0  0  0  0  0
   -2.4726   -1.0445    0.0000 C   0  0  0  0  0  0  0  0  0  0  0  0
  1  2  1  0
  2  3  1  0
  3  4  2  0
  3  5  1  0
  5  6  1  0
  6  7  1  0
  7  8  1  0
  8  9  1  0
  9 10  1  0
 10 11  1  0
 11 12  1  0
 12 13  2  0
 13 14  1  0
 14 15  2  0
 15 16  1  0
 16 17  2  0
  8 18  1  0
 18 19  1  0
 19  5  1  0
 17 12  1  0
M  END
>  <ChemBL_ID>  (743) 
CHEMBL440173

>  <Compound_Key>  (743) 
27

>  <Ki>  (743) 
303.0

>  <database>  (743) 
CHEMBL

>  <Assay_ChEMBL_ID>  (743) 
CHEMBL808908

>  <Document_ChEMBL_ID>  (743) 
CHEMBL1131417

$$$$

     RDKit          2D

 26 28  0  0  0  0  0  0  0  0999 V2000
   -4.8422   -3.3543    0.0000 C   0  0  0  0  0  0  0  0  0  0  0  0
   -4.5161   -1.8902    0.0000 O   0  0  0  0  0  0  0  0  0  0  0  0
   -5.6210   -0.8757    0.0000 C   0  0  0  0  0  0  0  0  0  0  0  0
   -7.0520   -1.3253    0.0000 C   0  0  0  0  0  0  0  0  0  0  0  0
   -8.1569   -0.3107    0.0000 C   0  0  0  0  0  0  0  0  0  0  0  0
   -7.8307    1.1534    0.0000 C   0  0  0  0  0  0  0  0  0  0  0  0
   -6.3997    1.6030    0.0000 C   0  0  0  0  0  0  0  0  0  0  0  0
   -5.2948    0.5884    0.0000 C   0  0  0  0  0  0  0  0  0  0  0  0
   -3.8638    1.0380    0.0000 C   0  0  0  0  0  0  0  0  0  0  0  0
   -2.7589    0.0235    0.0000 C   0  0  0  0  0  0  0  0  0  0  0  0
   -3.0851   -1.4406    0.0000 O   0  0  0  0  0  0  0  0  0  0  0  0
   -1.3279    0.4731    0.0000 N   0  0  0  0  0  0  0  0  0  0  0  0
   -0.2230   -0.5414    0.0000 C   0  0  0  0  0  0  0  0  0  0  0  0
    1.2081   -0.0918    0.0000 C   0  0  0  0  0  0  0  0  0  0  0  0
    1.5342    1.3723    0.0000 N   0  0  0  0  0  0  0  0  0  0  0  0
    2.9652    1.8219    0.0000 C   0  0  0  0  0  0  0  0  0  0  0  0
    4.0701    0.8074    0.0000 C   0  0  0  0  0  0  0  0  0  0  0  0
    5.5012    1.2570    0.0000 C   0  0  0  0  0  0  0  0  0  0  0  0
    6.6060    0.2425    0.0000 C   0  0  0  0  0  0  0  0  0  0  0  0
    6.2799   -1.2216    0.0000 C   0  0  0  0  0  0  0  0  0  0  0  0
    7.3848   -2.2361    0.0000 C   0  0  0  0  0  0  0  0  0  0  0  0
    8.8158   -1.7866    0.0000 C   0  0  0  0  0  0  0  0  0  0  0  0
    9.1420   -0.3224    0.0000 C   0  0  0  0  0  0  0  0  0  0  0  0
    8.0371    0.6921    0.0000 C   0  0  0  0  0  0  0  0  0  0  0  0
    0.4293    2.3868    0.0000 C   0  0  0  0  0  0  0  0  0  0  0  0
   -1.0017    1.9372    0.0000 C   0  0  0  0  0  0  0  0  0  0  0  0
  1  2  1  0
  2  3  1  0
  3  4  2  0
  4  5  1  0
  5  6  2  0
  6  7  1  0
  7  8  2  0
  8  9  1  0
  9 10  1  0
 10 11  2  0
 10 12  1  0
 12 13  1  0
 13 14  1  0
 14 15  1  0
 15 16  1  0
 16 17  1  0
 17 18  1  0
 18 19  1  0
 19 20  2  0
 20 21  1  0
 21 22  2  0
 22 23  1  0
 23 24  2  0
 15 25  1  0
 25 26  1  0
  8  3  1  0
 26 12  1  0
 24 19  1  0
M  END
>  <ChemBL_ID>  (744) 
CHEMBL146723

>  <Compound_Key>  (744) 
5

>  <Ki>  (744) 
294.0

>  <database>  (744) 
CHEMBL

>  <Assay_ChEMBL_ID>  (744) 
CHEMBL808908

>  <Document_ChEMBL_ID>  (744) 
CHEMBL1131417

$$$$

     RDKit          2D

 24 26  0  0  0  0  0  0  0  0999 V2000
   -3.1747    2.1441    0.0000 O   0  0  0  0  0  0  0  0  0  0  0  0
   -3.6365    0.7170    0.0000 C   0  0  0  0  0  0  0  0  0  0  0  0
   -2.6315   -0.3965    0.0000 C   0  0  0  0  0  0  0  0  0  0  0  0
   -1.1646   -0.0829    0.0000 C   0  0  0  0  0  0  0  0  0  0  0  0
   -0.1596   -1.1965    0.0000 C   0  0  0  0  0  0  0  0  0  0  0  0
    1.3072   -0.8829    0.0000 N   0  0  0  0  0  0  0  0  0  0  0  0
    2.3122   -1.9964    0.0000 C   0  0  0  0  0  0  0  0  0  0  0  0
    3.7791   -1.6828    0.0000 C   0  0  0  0  0  0  0  0  0  0  0  0
    4.2409   -0.2557    0.0000 N   0  0  0  0  0  0  0  0  0  0  0  0
    5.7078    0.0579    0.0000 C   0  0  0  0  0  0  0  0  0  0  0  0
    6.7128   -1.0556    0.0000 C   0  0  0  0  0  0  0  0  0  0  0  0
    8.1796   -0.7420    0.0000 C   0  0  0  0  0  0  0  0  0  0  0  0
    8.6415    0.6851    0.0000 C   0  0  0  0  0  0  0  0  0  0  0  0
    7.6365    1.7986    0.0000 C   0  0  0  0  0  0  0  0  0  0  0  0
    6.1696    1.4850    0.0000 N   0  0  0  0  0  0  0  0  0  0  0  0
    3.2359    0.8578    0.0000 C   0  0  0  0  0  0  0  0  0  0  0  0
    1.7691    0.5443    0.0000 C   0  0  0  0  0  0  0  0  0  0  0  0
   -5.1034    0.4034    0.0000 C   0  0  0  0  0  0  0  0  0  0  0  0
   -6.1084    1.5169    0.0000 C   0  0  0  0  0  0  0  0  0  0  0  0
   -7.5752    1.2034    0.0000 C   0  0  0  0  0  0  0  0  0  0  0  0
   -8.0371   -0.2238    0.0000 C   0  0  0  0  0  0  0  0  0  0  0  0
   -9.5039   -0.5374    0.0000 F   0  0  0  0  0  0  0  0  0  0  0  0
   -7.0321   -1.3373    0.0000 C   0  0  0  0  0  0  0  0  0  0  0  0
   -5.5652   -1.0237    0.0000 C   0  0  0  0  0  0  0  0  0  0  0  0
  1  2  2  0
  2  3  1  0
  3  4  1  0
  4  5  1  0
  5  6  1  0
  6  7  1  0
  7  8  1  0
  8  9  1  0
  9 10  1  0
 10 11  2  0
 11 12  1  0
 12 13  2  0
 13 14  1  0
 14 15  2  0
  9 16  1  0
 16 17  1  0
  2 18  1  0
 18 19  2  0
 19 20  1  0
 20 21  2  0
 21 22  1  0
 21 23  1  0
 23 24  2  0
 17  6  1  0
 24 18  1  0
 15 10  1  0
M  END
>  <ChemBL_ID>  (745) 
CHEMBL340211

>  <Compound_Key>  (745) 
1b

>  <Ki>  (745) 
51.0

>  <database>  (745) 
CHEMBL

>  <Assay_ChEMBL_ID>  (745) 
CHEMBL844344

>  <Document_ChEMBL_ID>  (745) 
CHEMBL1126960

$$$$

     RDKit          2D

 31 34  0  0  0  0  0  0  0  0999 V2000
   -8.8611   -2.9963    0.0000 F   0  0  0  0  0  0  0  0  0  0  0  0
   -7.5058   -2.3536    0.0000 C   0  0  0  0  0  0  0  0  0  0  0  0
   -7.3847   -0.8585    0.0000 C   0  0  0  0  0  0  0  0  0  0  0  0
   -6.0294   -0.2157    0.0000 C   0  0  0  0  0  0  0  0  0  0  0  0
   -4.7951   -1.0681    0.0000 C   0  0  0  0  0  0  0  0  0  0  0  0
   -3.4398   -0.4254    0.0000 N   0  0  0  0  0  0  0  0  0  0  0  0
   -2.2055   -1.2778    0.0000 C   0  0  0  0  0  0  0  0  0  0  0  0
   -0.8502   -0.6351    0.0000 C   0  0  0  0  0  0  0  0  0  0  0  0
    0.3841   -1.4875    0.0000 C   0  0  0  0  0  0  0  0  0  0  0  0
    1.7394   -0.8447    0.0000 N   0  0  0  0  0  0  0  0  0  0  0  0
    2.9737   -1.6971    0.0000 C   0  0  0  0  0  0  0  0  0  0  0  0
    4.3290   -1.0544    0.0000 C   0  0  0  0  0  0  0  0  0  0  0  0
    4.4500    0.4407    0.0000 N   0  0  0  0  0  0  0  0  0  0  0  0
    5.8054    1.0834    0.0000 C   0  0  0  0  0  0  0  0  0  0  0  0
    7.0396    0.2310    0.0000 C   0  0  0  0  0  0  0  0  0  0  0  0
    6.9186   -1.2641    0.0000 C   0  0  0  0  0  0  0  0  0  0  0  0
    8.1529   -2.1165    0.0000 C   0  0  0  0  0  0  0  0  0  0  0  0
    9.5082   -1.4737    0.0000 C   0  0  0  0  0  0  0  0  0  0  0  0
    9.6293    0.0214    0.0000 C   0  0  0  0  0  0  0  0  0  0  0  0
    8.3950    0.8738    0.0000 C   0  0  0  0  0  0  0  0  0  0  0  0
    3.2158    1.2931    0.0000 C   0  0  0  0  0  0  0  0  0  0  0  0
    1.8604    0.6504    0.0000 C   0  0  0  0  0  0  0  0  0  0  0  0
   -3.3188    1.0697    0.0000 C   0  0  0  0  0  0  0  0  0  0  0  0
   -1.9634    1.7124    0.0000 C   0  0  0  0  0  0  0  0  0  0  0  0
   -1.8424    3.2075    0.0000 C   0  0  0  0  0  0  0  0  0  0  0  0
   -3.0767    4.0599    0.0000 C   0  0  0  0  0  0  0  0  0  0  0  0
   -2.9556    5.5550    0.0000 F   0  0  0  0  0  0  0  0  0  0  0  0
   -4.4320    3.4172    0.0000 C   0  0  0  0  0  0  0  0  0  0  0  0
   -4.5530    1.9221    0.0000 C   0  0  0  0  0  0  0  0  0  0  0  0
   -4.9162   -2.5632    0.0000 C   0  0  0  0  0  0  0  0  0  0  0  0
   -6.2715   -3.2059    0.0000 C   0  0  0  0  0  0  0  0  0  0  0  0
  1  2  1  0
  2  3  2  0
  3  4  1  0
  4  5  2  0
  5  6  1  0
  6  7  1  0
  7  8  1  0
  8  9  1  0
  9 10  1  0
 10 11  1  0
 11 12  1  0
 12 13  1  0
 13 14  1  0
 14 15  1  0
 15 16  2  0
 16 17  1  0
 17 18  2  0
 18 19  1  0
 19 20  2  0
 13 21  1  0
 21 22  1  0
  6 23  1  0
 23 24  2  0
 24 25  1  0
 25 26  2  0
 26 27  1  0
 26 28  1  0
 28 29  2  0
  5 30  1  0
 30 31  2  0
 31  2  1  0
 22 10  1  0
 29 23  1  0
 20 15  1  0
M  END
>  <ChemBL_ID>  (746) 
CHEMBL87841

>  <Compound_Key>  (746) 
17

>  <Ki>  (746) 
78.1

>  <database>  (746) 
CHEMBL

>  <Assay_ChEMBL_ID>  (746) 
CHEMBL809527

>  <Document_ChEMBL_ID>  (746) 
CHEMBL1145802

$$$$

     RDKit          2D

 26 28  0  0  0  0  0  0  0  0999 V2000
   -8.6382   -2.9533    0.0000 C   0  0  0  0  0  0  0  0  0  0  0  0
   -7.1944   -2.5464    0.0000 O   0  0  0  0  0  0  0  0  0  0  0  0
   -6.8249   -1.0927    0.0000 C   0  0  0  0  0  0  0  0  0  0  0  0
   -7.8991   -0.0457    0.0000 C   0  0  0  0  0  0  0  0  0  0  0  0
   -7.5295    1.4080    0.0000 C   0  0  0  0  0  0  0  0  0  0  0  0
   -6.0858    1.8149    0.0000 C   0  0  0  0  0  0  0  0  0  0  0  0
   -5.0115    0.7679    0.0000 C   0  0  0  0  0  0  0  0  0  0  0  0
   -3.5678    1.1748    0.0000 C   0  0  0  0  0  0  0  0  0  0  0  0
   -2.4935    0.1279    0.0000 C   0  0  0  0  0  0  0  0  0  0  0  0
   -2.8631   -1.3259    0.0000 O   0  0  0  0  0  0  0  0  0  0  0  0
   -1.0498    0.5347    0.0000 N   0  0  0  0  0  0  0  0  0  0  0  0
    0.0245   -0.5122    0.0000 C   0  0  0  0  0  0  0  0  0  0  0  0
    1.4682   -0.1053    0.0000 C   0  0  0  0  0  0  0  0  0  0  0  0
    1.8378    1.3484    0.0000 N   0  0  0  0  0  0  0  0  0  0  0  0
    3.2815    1.7553    0.0000 C   0  0  0  0  0  0  0  0  0  0  0  0
    4.3558    0.7083    0.0000 C   0  0  0  0  0  0  0  0  0  0  0  0
    5.7995    1.1152    0.0000 C   0  0  0  0  0  0  0  0  0  0  0  0
    6.8738    0.0683    0.0000 C   0  0  0  0  0  0  0  0  0  0  0  0
    6.5042   -1.3855    0.0000 C   0  0  0  0  0  0  0  0  0  0  0  0
    7.5784   -2.4324    0.0000 C   0  0  0  0  0  0  0  0  0  0  0  0
    9.0222   -2.0256    0.0000 C   0  0  0  0  0  0  0  0  0  0  0  0
    9.3918   -0.5718    0.0000 C   0  0  0  0  0  0  0  0  0  0  0  0
    8.3175    0.4751    0.0000 C   0  0  0  0  0  0  0  0  0  0  0  0
    0.7635    2.3953    0.0000 C   0  0  0  0  0  0  0  0  0  0  0  0
   -0.6802    1.9885    0.0000 C   0  0  0  0  0  0  0  0  0  0  0  0
   -5.3811   -0.6858    0.0000 C   0  0  0  0  0  0  0  0  0  0  0  0
  1  2  1  0
  2  3  1  0
  3  4  2  0
  4  5  1  0
  5  6  2  0
  6  7  1  0
  7  8  1  0
  8  9  1  0
  9 10  2  0
  9 11  1  0
 11 12  1  0
 12 13  1  0
 13 14  1  0
 14 15  1  0
 15 16  1  0
 16 17  1  0
 17 18  1  0
 18 19  2  0
 19 20  1  0
 20 21  2  0
 21 22  1  0
 22 23  2  0
 14 24  1  0
 24 25  1  0
  7 26  2  0
 26  3  1  0
 25 11  1  0
 23 18  1  0
M  END
>  <ChemBL_ID>  (747) 
CHEMBL358321

>  <Compound_Key>  (747) 
6

>  <Ki>  (747) 
206.0

>  <database>  (747) 
CHEMBL

>  <Assay_ChEMBL_ID>  (747) 
CHEMBL808908

>  <Document_ChEMBL_ID>  (747) 
CHEMBL1131417

$$$$

     RDKit          2D

 27 28  0  0  0  0  0  0  0  0999 V2000
   -9.9150    1.5984    0.0000 C   0  0  0  0  0  0  0  0  0  0  0  0
   -9.3283    0.2179    0.0000 C   0  0  0  0  0  0  0  0  0  0  0  0
   -8.7416   -1.1626    0.0000 C   0  0  0  0  0  0  0  0  0  0  0  0
  -10.7088   -0.3688    0.0000 C   0  0  0  0  0  0  0  0  0  0  0  0
   -7.9478    0.8046    0.0000 O   0  0  0  0  0  0  0  0  0  0  0  0
   -6.7495   -0.0976    0.0000 C   0  0  0  0  0  0  0  0  0  0  0  0
   -6.9316   -1.5865    0.0000 O   0  0  0  0  0  0  0  0  0  0  0  0
   -5.3690    0.4890    0.0000 N   0  0  0  0  0  0  0  0  0  0  0  0
   -4.1706   -0.4132    0.0000 C   0  0  0  0  0  0  0  0  0  0  0  0
   -2.7901    0.1735    0.0000 C   0  0  0  0  0  0  0  0  0  0  0  0
   -1.5918   -0.7287    0.0000 C   0  0  0  0  0  0  0  0  0  0  0  0
   -1.7740   -2.2176    0.0000 O   0  0  0  0  0  0  0  0  0  0  0  0
   -0.2113   -0.1421    0.0000 N   0  0  0  0  0  0  0  0  0  0  0  0
   -0.0291    1.3468    0.0000 C   0  0  0  0  0  0  0  0  0  0  0  0
    1.3514    1.9335    0.0000 C   0  0  0  0  0  0  0  0  0  0  0  0
    2.5498    1.0313    0.0000 N   0  0  0  0  0  0  0  0  0  0  0  0
    3.9303    1.6180    0.0000 C   0  0  0  0  0  0  0  0  0  0  0  0
    5.1286    0.7157    0.0000 C   0  0  0  0  0  0  0  0  0  0  0  0
    6.5091    1.3024    0.0000 C   0  0  0  0  0  0  0  0  0  0  0  0
    7.7074    0.4002    0.0000 C   0  0  0  0  0  0  0  0  0  0  0  0
    7.5253   -1.0887    0.0000 C   0  0  0  0  0  0  0  0  0  0  0  0
    8.7236   -1.9909    0.0000 C   0  0  0  0  0  0  0  0  0  0  0  0
   10.1041   -1.4043    0.0000 C   0  0  0  0  0  0  0  0  0  0  0  0
   10.2863    0.0846    0.0000 C   0  0  0  0  0  0  0  0  0  0  0  0
    9.0880    0.9869    0.0000 C   0  0  0  0  0  0  0  0  0  0  0  0
    2.3676   -0.4576    0.0000 C   0  0  0  0  0  0  0  0  0  0  0  0
    0.9871   -1.0443    0.0000 C   0  0  0  0  0  0  0  0  0  0  0  0
  1  2  1  0
  2  3  1  0
  2  4  1  0
  2  5  1  0
  5  6  1  0
  6  7  2  0
  6  8  1  0
  8  9  1  0
  9 10  1  0
 10 11  1  0
 11 12  2  0
 11 13  1  0
 13 14  1  0
 14 15  1  0
 15 16  1  0
 16 17  1  0
 17 18  1  0
 18 19  1  0
 19 20  1  0
 20 21  2  0
 21 22  1  0
 22 23  2  0
 23 24  1  0
 24 25  2  0
 16 26  1  0
 26 27  1  0
 27 13  1  0
 25 20  1  0
M  END
>  <ChemBL_ID>  (748) 
CHEMBL147208

>  <Compound_Key>  (748) 
25

>  <Ki>  (748) 
4561.0

>  <database>  (748) 
CHEMBL

>  <Assay_ChEMBL_ID>  (748) 
CHEMBL808908

>  <Document_ChEMBL_ID>  (748) 
CHEMBL1131417

$$$$

     RDKit          2D

 27 29  0  0  0  0  0  0  0  0999 V2000
    2.5374    2.3127    0.0000 O   0  0  0  0  0  0  0  0  0  0  0  0
    2.3687    0.8222    0.0000 C   0  0  0  0  0  0  0  0  0  0  0  0
    3.5752   -0.0691    0.0000 C   0  0  0  0  0  0  0  0  0  0  0  0
    4.9504    0.5301    0.0000 C   0  0  0  0  0  0  0  0  0  0  0  0
    5.1190    2.0206    0.0000 C   0  0  0  0  0  0  0  0  0  0  0  0
    6.4941    2.6198    0.0000 C   0  0  0  0  0  0  0  0  0  0  0  0
    7.7006    1.7285    0.0000 C   0  0  0  0  0  0  0  0  0  0  0  0
    7.5320    0.2380    0.0000 C   0  0  0  0  0  0  0  0  0  0  0  0
    6.1568   -0.3612    0.0000 C   0  0  0  0  0  0  0  0  0  0  0  0
    5.9882   -1.8516    0.0000 N   0  0  0  0  0  4  0  0  0  0  0  0
    4.6131   -2.4508    0.0000 O   0  0  0  0  0  0  0  0  0  0  0  0
    7.1947   -2.7429    0.0000 O   0  0  0  0  0  1  0  0  0  0  0  0
    0.9936    0.2230    0.0000 N   0  0  0  0  0  0  0  0  0  0  0  0
   -0.2129    1.1143    0.0000 C   0  0  0  0  0  0  0  0  0  0  0  0
   -1.5880    0.5151    0.0000 C   0  0  0  0  0  0  0  0  0  0  0  0
   -1.7566   -0.9754    0.0000 N   0  0  0  0  0  0  0  0  0  0  0  0
   -3.1317   -1.5746    0.0000 C   0  0  0  0  0  0  0  0  0  0  0  0
   -4.3382   -0.6833    0.0000 C   0  0  0  0  0  0  0  0  0  0  0  0
   -5.7133   -1.2825    0.0000 C   0  0  0  0  0  0  0  0  0  0  0  0
   -6.9198   -0.3912    0.0000 C   0  0  0  0  0  0  0  0  0  0  0  0
   -6.7512    1.0993    0.0000 C   0  0  0  0  0  0  0  0  0  0  0  0
   -7.9577    1.9906    0.0000 C   0  0  0  0  0  0  0  0  0  0  0  0
   -9.3328    1.3914    0.0000 C   0  0  0  0  0  0  0  0  0  0  0  0
   -9.5014   -0.0991    0.0000 C   0  0  0  0  0  0  0  0  0  0  0  0
   -8.2950   -0.9904    0.0000 C   0  0  0  0  0  0  0  0  0  0  0  0
   -0.5501   -1.8667    0.0000 C   0  0  0  0  0  0  0  0  0  0  0  0
    0.8250   -1.2675    0.0000 C   0  0  0  0  0  0  0  0  0  0  0  0
  1  2  2  0
  2  3  1  0
  3  4  1  0
  4  5  2  0
  5  6  1  0
  6  7  2  0
  7  8  1  0
  8  9  2  0
  9 10  1  0
 10 11  2  0
 10 12  1  0
  2 13  1  0
 13 14  1  0
 14 15  1  0
 15 16  1  0
 16 17  1  0
 17 18  1  0
 18 19  1  0
 19 20  1  0
 20 21  2  0
 21 22  1  0
 22 23  2  0
 23 24  1  0
 24 25  2  0
 16 26  1  0
 26 27  1  0
  9  4  1  0
 27 13  1  0
 25 20  1  0
M  CHG  2  10   1  12  -1
M  END
>  <ChemBL_ID>  (749) 
CHEMBL144469

>  <Compound_Key>  (749) 
2

>  <Ki>  (749) 
76.0

>  <database>  (749) 
CHEMBL

>  <Assay_ChEMBL_ID>  (749) 
CHEMBL808908

>  <Document_ChEMBL_ID>  (749) 
CHEMBL1131417

$$$$

     RDKit          2D

 26 28  0  0  0  0  0  0  0  0999 V2000
    2.7989    1.4937    0.0000 O   0  0  0  0  0  0  0  0  0  0  0  0
    2.4664    0.0311    0.0000 C   0  0  0  0  0  0  0  0  0  0  0  0
    3.5670   -0.9882    0.0000 C   0  0  0  0  0  0  0  0  0  0  0  0
    4.9999   -0.5448    0.0000 C   0  0  0  0  0  0  0  0  0  0  0  0
    6.1004   -1.5640    0.0000 C   0  0  0  0  0  0  0  0  0  0  0  0
    7.5334   -1.1206    0.0000 C   0  0  0  0  0  0  0  0  0  0  0  0
    7.8658    0.3421    0.0000 C   0  0  0  0  0  0  0  0  0  0  0  0
    9.2988    0.7855    0.0000 Cl  0  0  0  0  0  0  0  0  0  0  0  0
    6.7653    1.3614    0.0000 C   0  0  0  0  0  0  0  0  0  0  0  0
    7.0978    2.8241    0.0000 Cl  0  0  0  0  0  0  0  0  0  0  0  0
    5.3324    0.9179    0.0000 C   0  0  0  0  0  0  0  0  0  0  0  0
    1.0335   -0.4124    0.0000 N   0  0  0  0  0  0  0  0  0  0  0  0
   -0.0670    0.6069    0.0000 C   0  0  0  0  0  0  0  0  0  0  0  0
   -1.5000    0.1634    0.0000 C   0  0  0  0  0  0  0  0  0  0  0  0
   -1.8324   -1.2993    0.0000 N   0  0  0  0  0  0  0  0  0  0  0  0
   -3.2654   -1.7427    0.0000 C   0  0  0  0  0  0  0  0  0  0  0  0
   -4.3659   -0.7234    0.0000 C   0  0  0  0  0  0  0  0  0  0  0  0
   -5.7988   -1.1669    0.0000 C   0  0  0  0  0  0  0  0  0  0  0  0
   -6.8993   -0.1476    0.0000 C   0  0  0  0  0  0  0  0  0  0  0  0
   -6.5669    1.3151    0.0000 C   0  0  0  0  0  0  0  0  0  0  0  0
   -7.6674    2.3343    0.0000 C   0  0  0  0  0  0  0  0  0  0  0  0
   -9.1004    1.8909    0.0000 C   0  0  0  0  0  0  0  0  0  0  0  0
   -9.4328    0.4282    0.0000 C   0  0  0  0  0  0  0  0  0  0  0  0
   -8.3323   -0.5911    0.0000 C   0  0  0  0  0  0  0  0  0  0  0  0
   -0.7319   -2.3185    0.0000 C   0  0  0  0  0  0  0  0  0  0  0  0
    0.7010   -1.8751    0.0000 C   0  0  0  0  0  0  0  0  0  0  0  0
  1  2  2  0
  2  3  1  0
  3  4  1  0
  4  5  2  0
  5  6  1  0
  6  7  2  0
  7  8  1  0
  7  9  1  0
  9 10  1  0
  9 11  2  0
  2 12  1  0
 12 13  1  0
 13 14  1  0
 14 15  1  0
 15 16  1  0
 16 17  1  0
 17 18  1  0
 18 19  1  0
 19 20  2  0
 20 21  1  0
 21 22  2  0
 22 23  1  0
 23 24  2  0
 15 25  1  0
 25 26  1  0
 11  4  1  0
 26 12  1  0
 24 19  1  0
M  END
>  <ChemBL_ID>  (750) 
CHEMBL147485

>  <Compound_Key>  (750) 
1

>  <Ki>  (750) 
78.0

>  <database>  (750) 
CHEMBL

>  <Assay_ChEMBL_ID>  (750) 
CHEMBL808908

>  <Document_ChEMBL_ID>  (750) 
CHEMBL1131417

$$$$

     RDKit          2D

 25 27  0  0  0  0  0  0  0  0999 V2000
   -8.7378   -3.0492    0.0000 C   0  0  0  0  0  0  0  0  0  0  0  0
   -7.2961   -2.6353    0.0000 O   0  0  0  0  0  0  0  0  0  0  0  0
   -6.9337   -1.1797    0.0000 C   0  0  0  0  0  0  0  0  0  0  0  0
   -8.0130   -0.1381    0.0000 C   0  0  0  0  0  0  0  0  0  0  0  0
   -7.6506    1.3175    0.0000 C   0  0  0  0  0  0  0  0  0  0  0  0
   -6.2089    1.7314    0.0000 C   0  0  0  0  0  0  0  0  0  0  0  0
   -5.1295    0.6898    0.0000 C   0  0  0  0  0  0  0  0  0  0  0  0
   -3.6877    1.1037    0.0000 C   0  0  0  0  0  0  0  0  0  0  0  0
   -2.6084    0.0621    0.0000 C   0  0  0  0  0  0  0  0  0  0  0  0
   -1.1666    0.4760    0.0000 N   0  0  0  0  0  0  0  0  0  0  0  0
   -0.0873   -0.5657    0.0000 C   0  0  0  0  0  0  0  0  0  0  0  0
    1.3545   -0.1517    0.0000 C   0  0  0  0  0  0  0  0  0  0  0  0
    1.7169    1.3038    0.0000 N   0  0  0  0  0  0  0  0  0  0  0  0
    3.1586    1.7177    0.0000 C   0  0  0  0  0  0  0  0  0  0  0  0
    4.2380    0.6761    0.0000 C   0  0  0  0  0  0  0  0  0  0  0  0
    5.6797    1.0900    0.0000 C   0  0  0  0  0  0  0  0  0  0  0  0
    6.7591    0.0484    0.0000 C   0  0  0  0  0  0  0  0  0  0  0  0
    6.3967   -1.4072    0.0000 C   0  0  0  0  0  0  0  0  0  0  0  0
    7.4760   -2.4488    0.0000 C   0  0  0  0  0  0  0  0  0  0  0  0
    8.9178   -2.0349    0.0000 C   0  0  0  0  0  0  0  0  0  0  0  0
    9.2802   -0.5793    0.0000 C   0  0  0  0  0  0  0  0  0  0  0  0
    8.2008    0.4623    0.0000 C   0  0  0  0  0  0  0  0  0  0  0  0
    0.6375    2.3455    0.0000 C   0  0  0  0  0  0  0  0  0  0  0  0
   -0.8042    1.9315    0.0000 C   0  0  0  0  0  0  0  0  0  0  0  0
   -5.4919   -0.7658    0.0000 C   0  0  0  0  0  0  0  0  0  0  0  0
  1  2  1  0
  2  3  1  0
  3  4  2  0
  4  5  1  0
  5  6  2  0
  6  7  1  0
  7  8  1  0
  8  9  1  0
  9 10  1  0
 10 11  1  0
 11 12  1  0
 12 13  1  0
 13 14  1  0
 14 15  1  0
 15 16  1  0
 16 17  1  0
 17 18  2  0
 18 19  1  0
 19 20  2  0
 20 21  1  0
 21 22  2  0
 13 23  1  0
 23 24  1  0
  7 25  2  0
 25  3  1  0
 24 10  1  0
 22 17  1  0
M  END
>  <ChemBL_ID>  (751) 
CHEMBL358116

>  <Compound_Key>  (751) 
16

>  <Ki>  (751) 
10.0

>  <database>  (751) 
CHEMBL

>  <Assay_ChEMBL_ID>  (751) 
CHEMBL808908

>  <Document_ChEMBL_ID>  (751) 
CHEMBL1131417

$$$$

     RDKit          2D

 24 26  0  0  0  0  0  0  0  0999 V2000
   -7.5507   -3.0489    0.0000 N   0  0  0  0  0  0  0  0  0  0  0  0
   -7.2434   -1.5807    0.0000 C   0  0  0  0  0  0  0  0  0  0  0  0
   -8.3612   -0.5804    0.0000 C   0  0  0  0  0  0  0  0  0  0  0  0
   -8.0538    0.8877    0.0000 C   0  0  0  0  0  0  0  0  0  0  0  0
   -6.6287    1.3557    0.0000 C   0  0  0  0  0  0  0  0  0  0  0  0
   -5.5109    0.3554    0.0000 C   0  0  0  0  0  0  0  0  0  0  0  0
   -4.0857    0.8233    0.0000 C   0  0  0  0  0  0  0  0  0  0  0  0
   -2.9679   -0.1769    0.0000 C   0  0  0  0  0  0  0  0  0  0  0  0
   -1.5428    0.2910    0.0000 N   0  0  0  0  0  0  0  0  0  0  0  0
   -0.4250   -0.7092    0.0000 C   0  0  0  0  0  0  0  0  0  0  0  0
    1.0002   -0.2413    0.0000 C   0  0  0  0  0  0  0  0  0  0  0  0
    1.3075    1.2269    0.0000 N   0  0  0  0  0  0  0  0  0  0  0  0
    2.7327    1.6948    0.0000 C   0  0  0  0  0  0  0  0  0  0  0  0
    3.8505    0.6946    0.0000 C   0  0  0  0  0  0  0  0  0  0  0  0
    5.2756    1.1625    0.0000 C   0  0  0  0  0  0  0  0  0  0  0  0
    6.3934    0.1622    0.0000 C   0  0  0  0  0  0  0  0  0  0  0  0
    6.0861   -1.3059    0.0000 C   0  0  0  0  0  0  0  0  0  0  0  0
    7.2039   -2.3062    0.0000 C   0  0  0  0  0  0  0  0  0  0  0  0
    8.6291   -1.8383    0.0000 C   0  0  0  0  0  0  0  0  0  0  0  0
    8.9364   -0.3701    0.0000 C   0  0  0  0  0  0  0  0  0  0  0  0
    7.8186    0.6302    0.0000 C   0  0  0  0  0  0  0  0  0  0  0  0
    0.1897    2.2271    0.0000 C   0  0  0  0  0  0  0  0  0  0  0  0
   -1.2354    1.7592    0.0000 C   0  0  0  0  0  0  0  0  0  0  0  0
   -5.8182   -1.1128    0.0000 C   0  0  0  0  0  0  0  0  0  0  0  0
  1  2  1  0
  2  3  2  0
  3  4  1  0
  4  5  2  0
  5  6  1  0
  6  7  1  0
  7  8  1  0
  8  9  1  0
  9 10  1  0
 10 11  1  0
 11 12  1  0
 12 13  1  0
 13 14  1  0
 14 15  1  0
 15 16  1  0
 16 17  2  0
 17 18  1  0
 18 19  2  0
 19 20  1  0
 20 21  2  0
 12 22  1  0
 22 23  1  0
  6 24  2  0
 24  2  1  0
 23  9  1  0
 21 16  1  0
M  END
>  <ChemBL_ID>  (752) 
CHEMBL147098

>  <Compound_Key>  (752) 
13

>  <Ki>  (752) 
37.0

>  <database>  (752) 
CHEMBL

>  <Assay_ChEMBL_ID>  (752) 
CHEMBL808908

>  <Document_ChEMBL_ID>  (752) 
CHEMBL1131417

$$$$

     RDKit          2D

 25 27  0  0  0  0  0  0  0  0999 V2000
  -10.3762   -0.2559    0.0000 C   0  0  0  0  0  0  0  0  0  0  0  0
   -9.2459   -1.2421    0.0000 O   0  0  0  0  0  0  0  0  0  0  0  0
   -7.8267   -0.7564    0.0000 C   0  0  0  0  0  0  0  0  0  0  0  0
   -7.5378    0.7155    0.0000 C   0  0  0  0  0  0  0  0  0  0  0  0
   -6.1186    1.2012    0.0000 C   0  0  0  0  0  0  0  0  0  0  0  0
   -4.9884    0.2150    0.0000 C   0  0  0  0  0  0  0  0  0  0  0  0
   -3.5692    0.7007    0.0000 C   0  0  0  0  0  0  0  0  0  0  0  0
   -2.4390   -0.2855    0.0000 C   0  0  0  0  0  0  0  0  0  0  0  0
   -1.0198    0.2002    0.0000 N   0  0  0  0  0  0  0  0  0  0  0  0
    0.1105   -0.7860    0.0000 C   0  0  0  0  0  0  0  0  0  0  0  0
    1.5296   -0.3003    0.0000 C   0  0  0  0  0  0  0  0  0  0  0  0
    1.8186    1.1716    0.0000 N   0  0  0  0  0  0  0  0  0  0  0  0
    3.2378    1.6573    0.0000 C   0  0  0  0  0  0  0  0  0  0  0  0
    4.3680    0.6711    0.0000 C   0  0  0  0  0  0  0  0  0  0  0  0
    5.7872    1.1568    0.0000 C   0  0  0  0  0  0  0  0  0  0  0  0
    6.9174    0.1706    0.0000 C   0  0  0  0  0  0  0  0  0  0  0  0
    6.6285   -1.3013    0.0000 C   0  0  0  0  0  0  0  0  0  0  0  0
    7.7587   -2.2875    0.0000 C   0  0  0  0  0  0  0  0  0  0  0  0
    9.1779   -1.8018    0.0000 C   0  0  0  0  0  0  0  0  0  0  0  0
    9.4668   -0.3299    0.0000 C   0  0  0  0  0  0  0  0  0  0  0  0
    8.3366    0.6563    0.0000 C   0  0  0  0  0  0  0  0  0  0  0  0
    0.6884    2.1578    0.0000 C   0  0  0  0  0  0  0  0  0  0  0  0
   -0.7308    1.6721    0.0000 C   0  0  0  0  0  0  0  0  0  0  0  0
   -5.2773   -1.2569    0.0000 C   0  0  0  0  0  0  0  0  0  0  0  0
   -6.6965   -1.7426    0.0000 C   0  0  0  0  0  0  0  0  0  0  0  0
  1  2  1  0
  2  3  1  0
  3  4  2  0
  4  5  1  0
  5  6  2  0
  6  7  1  0
  7  8  1  0
  8  9  1  0
  9 10  1  0
 10 11  1  0
 11 12  1  0
 12 13  1  0
 13 14  1  0
 14 15  1  0
 15 16  1  0
 16 17  2  0
 17 18  1  0
 18 19  2  0
 19 20  1  0
 20 21  2  0
 12 22  1  0
 22 23  1  0
  6 24  1  0
 24 25  2  0
 25  3  1  0
 23  9  1  0
 21 16  1  0
M  END
>  <ChemBL_ID>  (753) 
CHEMBL144490

>  <Compound_Key>  (753) 
17

>  <Ki>  (753) 
29.0

>  <database>  (753) 
CHEMBL

>  <Assay_ChEMBL_ID>  (753) 
CHEMBL808908

>  <Document_ChEMBL_ID>  (753) 
CHEMBL1131417

$$$$

     RDKit          2D

 28 29  0  0  0  0  0  0  0  0999 V2000
  -10.8576   -1.0557    0.0000 C   0  0  0  0  0  0  0  0  0  0  0  0
  -10.0284    0.1943    0.0000 C   0  0  0  0  0  0  0  0  0  0  0  0
   -9.1992    1.4442    0.0000 C   0  0  0  0  0  0  0  0  0  0  0  0
  -11.2784    1.0235    0.0000 C   0  0  0  0  0  0  0  0  0  0  0  0
   -8.7784   -0.6349    0.0000 O   0  0  0  0  0  0  0  0  0  0  0  0
   -7.4354    0.0330    0.0000 C   0  0  0  0  0  0  0  0  0  0  0  0
   -7.3423    1.5301    0.0000 O   0  0  0  0  0  0  0  0  0  0  0  0
   -6.1854   -0.7962    0.0000 N   0  0  0  0  0  0  0  0  0  0  0  0
   -4.8423   -0.1283    0.0000 C   0  0  0  0  0  0  0  0  0  0  0  0
   -3.5923   -0.9574    0.0000 C   0  0  0  0  0  0  0  0  0  0  0  0
   -2.2492   -0.2895    0.0000 C   0  0  0  0  0  0  0  0  0  0  0  0
   -0.9992   -1.1187    0.0000 C   0  0  0  0  0  0  0  0  0  0  0  0
   -1.0924   -2.6158    0.0000 O   0  0  0  0  0  0  0  0  0  0  0  0
    0.3438   -0.4508    0.0000 N   0  0  0  0  0  0  0  0  0  0  0  0
    0.4369    1.0463    0.0000 C   0  0  0  0  0  0  0  0  0  0  0  0
    1.7800    1.7142    0.0000 C   0  0  0  0  0  0  0  0  0  0  0  0
    3.0300    0.8851    0.0000 N   0  0  0  0  0  0  0  0  0  0  0  0
    4.3731    1.5530    0.0000 C   0  0  0  0  0  0  0  0  0  0  0  0
    5.6231    0.7238    0.0000 C   0  0  0  0  0  0  0  0  0  0  0  0
    6.9662    1.3917    0.0000 C   0  0  0  0  0  0  0  0  0  0  0  0
    8.2161    0.5625    0.0000 C   0  0  0  0  0  0  0  0  0  0  0  0
    8.1230   -0.9346    0.0000 C   0  0  0  0  0  0  0  0  0  0  0  0
    9.3730   -1.7638    0.0000 C   0  0  0  0  0  0  0  0  0  0  0  0
   10.7161   -1.0958    0.0000 C   0  0  0  0  0  0  0  0  0  0  0  0
   10.8092    0.4013    0.0000 C   0  0  0  0  0  0  0  0  0  0  0  0
    9.5592    1.2305    0.0000 C   0  0  0  0  0  0  0  0  0  0  0  0
    2.9369   -0.6120    0.0000 C   0  0  0  0  0  0  0  0  0  0  0  0
    1.5938   -1.2800    0.0000 C   0  0  0  0  0  0  0  0  0  0  0  0
  1  2  1  0
  2  3  1  0
  2  4  1  0
  2  5  1  0
  5  6  1  0
  6  7  2  0
  6  8  1  0
  8  9  1  0
  9 10  1  0
 10 11  1  0
 11 12  1  0
 12 13  2  0
 12 14  1  0
 14 15  1  0
 15 16  1  0
 16 17  1  0
 17 18  1  0
 18 19  1  0
 19 20  1  0
 20 21  1  0
 21 22  2  0
 22 23  1  0
 23 24  2  0
 24 25  1  0
 25 26  2  0
 17 27  1  0
 27 28  1  0
 28 14  1  0
 26 21  1  0
M  END
>  <ChemBL_ID>  (754) 
CHEMBL342809

>  <Compound_Key>  (754) 
26

>  <Ki>  (754) 
126.0

>  <database>  (754) 
CHEMBL

>  <Assay_ChEMBL_ID>  (754) 
CHEMBL808908

>  <Document_ChEMBL_ID>  (754) 
CHEMBL1131417

$$$$

     RDKit          2D

 26 28  0  0  0  0  0  0  0  0999 V2000
   -3.0851   -1.4406    0.0000 O   0  0  0  0  0  0  0  0  0  0  0  0
   -4.5161   -1.8902    0.0000 N   0  0  0  0  0  4  0  0  0  0  0  0
   -4.8422   -3.3543    0.0000 O   0  0  0  0  0  1  0  0  0  0  0  0
   -5.6210   -0.8757    0.0000 C   0  0  0  0  0  0  0  0  0  0  0  0
   -7.0520   -1.3253    0.0000 C   0  0  0  0  0  0  0  0  0  0  0  0
   -8.1569   -0.3107    0.0000 C   0  0  0  0  0  0  0  0  0  0  0  0
   -7.8307    1.1534    0.0000 C   0  0  0  0  0  0  0  0  0  0  0  0
   -6.3997    1.6030    0.0000 C   0  0  0  0  0  0  0  0  0  0  0  0
   -5.2948    0.5884    0.0000 C   0  0  0  0  0  0  0  0  0  0  0  0
   -3.8638    1.0380    0.0000 C   0  0  0  0  0  0  0  0  0  0  0  0
   -2.7589    0.0235    0.0000 C   0  0  0  0  0  0  0  0  0  0  0  0
   -1.3279    0.4731    0.0000 N   0  0  0  0  0  0  0  0  0  0  0  0
   -0.2230   -0.5414    0.0000 C   0  0  0  0  0  0  0  0  0  0  0  0
    1.2081   -0.0918    0.0000 C   0  0  0  0  0  0  0  0  0  0  0  0
    1.5342    1.3723    0.0000 N   0  0  0  0  0  0  0  0  0  0  0  0
    2.9652    1.8219    0.0000 C   0  0  0  0  0  0  0  0  0  0  0  0
    4.0701    0.8074    0.0000 C   0  0  0  0  0  0  0  0  0  0  0  0
    5.5012    1.2570    0.0000 C   0  0  0  0  0  0  0  0  0  0  0  0
    6.6060    0.2425    0.0000 C   0  0  0  0  0  0  0  0  0  0  0  0
    6.2799   -1.2216    0.0000 C   0  0  0  0  0  0  0  0  0  0  0  0
    7.3848   -2.2361    0.0000 C   0  0  0  0  0  0  0  0  0  0  0  0
    8.8158   -1.7866    0.0000 C   0  0  0  0  0  0  0  0  0  0  0  0
    9.1420   -0.3224    0.0000 C   0  0  0  0  0  0  0  0  0  0  0  0
    8.0371    0.6921    0.0000 C   0  0  0  0  0  0  0  0  0  0  0  0
    0.4293    2.3868    0.0000 C   0  0  0  0  0  0  0  0  0  0  0  0
   -1.0017    1.9372    0.0000 C   0  0  0  0  0  0  0  0  0  0  0  0
  1  2  2  0
  2  3  1  0
  2  4  1  0
  4  5  2  0
  5  6  1  0
  6  7  2  0
  7  8  1  0
  8  9  2  0
  9 10  1  0
 10 11  1  0
 11 12  1  0
 12 13  1  0
 13 14  1  0
 14 15  1  0
 15 16  1  0
 16 17  1  0
 17 18  1  0
 18 19  1  0
 19 20  2  0
 20 21  1  0
 21 22  2  0
 22 23  1  0
 23 24  2  0
 15 25  1  0
 25 26  1  0
  9  4  1  0
 26 12  1  0
 24 19  1  0
M  CHG  2   2   1   3  -1
M  END
>  <ChemBL_ID>  (755) 
CHEMBL356582

>  <Compound_Key>  (755) 
9

>  <Ki>  (755) 
4.9

>  <database>  (755) 
CHEMBL

>  <Assay_ChEMBL_ID>  (755) 
CHEMBL808908

>  <Document_ChEMBL_ID>  (755) 
CHEMBL1131417

$$$$

     RDKit          2D

 26 28  0  0  0  0  0  0  0  0999 V2000
  -10.8030    0.5438    0.0000 C   0  0  0  0  0  0  0  0  0  0  0  0
   -9.8186   -0.5880    0.0000 O   0  0  0  0  0  0  0  0  0  0  0  0
   -8.3462   -0.3014    0.0000 C   0  0  0  0  0  0  0  0  0  0  0  0
   -7.8583    1.1171    0.0000 C   0  0  0  0  0  0  0  0  0  0  0  0
   -6.3859    1.4037    0.0000 C   0  0  0  0  0  0  0  0  0  0  0  0
   -5.4015    0.2719    0.0000 C   0  0  0  0  0  0  0  0  0  0  0  0
   -3.9291    0.5585    0.0000 C   0  0  0  0  0  0  0  0  0  0  0  0
   -2.9447   -0.5733    0.0000 C   0  0  0  0  0  0  0  0  0  0  0  0
   -1.4724   -0.2866    0.0000 N   0  0  0  0  0  0  0  0  0  0  0  0
   -0.4880   -1.4184    0.0000 C   0  0  0  0  0  0  0  0  0  0  0  0
    0.9844   -1.1318    0.0000 C   0  0  0  0  0  0  0  0  0  0  0  0
    1.4724    0.2866    0.0000 N   0  0  0  0  0  0  0  0  0  0  0  0
    2.9447    0.5733    0.0000 C   0  0  0  0  0  0  0  0  0  0  0  0
    3.9291   -0.5585    0.0000 C   0  0  0  0  0  0  0  0  0  0  0  0
    5.4015   -0.2719    0.0000 C   0  0  0  0  0  0  0  0  0  0  0  0
    6.3859   -1.4037    0.0000 C   0  0  0  0  0  0  0  0  0  0  0  0
    7.8583   -1.1171    0.0000 C   0  0  0  0  0  0  0  0  0  0  0  0
    8.3462    0.3014    0.0000 C   0  0  0  0  0  0  0  0  0  0  0  0
    9.8186    0.5880    0.0000 O   0  0  0  0  0  0  0  0  0  0  0  0
   10.8030   -0.5438    0.0000 C   0  0  0  0  0  0  0  0  0  0  0  0
    7.3618    1.4332    0.0000 C   0  0  0  0  0  0  0  0  0  0  0  0
    5.8894    1.1465    0.0000 C   0  0  0  0  0  0  0  0  0  0  0  0
    0.4880    1.4184    0.0000 C   0  0  0  0  0  0  0  0  0  0  0  0
   -0.9844    1.1318    0.0000 C   0  0  0  0  0  0  0  0  0  0  0  0
   -5.8894   -1.1465    0.0000 C   0  0  0  0  0  0  0  0  0  0  0  0
   -7.3618   -1.4332    0.0000 C   0  0  0  0  0  0  0  0  0  0  0  0
  1  2  1  0
  2  3  1  0
  3  4  2  0
  4  5  1  0
  5  6  2  0
  6  7  1  0
  7  8  1  0
  8  9  1  0
  9 10  1  0
 10 11  1  0
 11 12  1  0
 12 13  1  0
 13 14  1  0
 14 15  1  0
 15 16  2  0
 16 17  1  0
 17 18  2  0
 18 19  1  0
 19 20  1  0
 18 21  1  0
 21 22  2  0
 12 23  1  0
 23 24  1  0
  6 25  1  0
 25 26  2  0
 26  3  1  0
 24  9  1  0
 22 15  1  0
M  END
>  <ChemBL_ID>  (756) 
CHEMBL146411

>  <Compound_Key>  (756) 
23

>  <Ki>  (756) 
99.0

>  <database>  (756) 
CHEMBL

>  <Assay_ChEMBL_ID>  (756) 
CHEMBL808908

>  <Document_ChEMBL_ID>  (756) 
CHEMBL1131417

$$$$

     RDKit          2D

 27 29  0  0  0  0  0  0  0  0999 V2000
    2.3192    1.5248    0.0000 O   0  0  0  0  0  0  0  0  0  0  0  0
    1.9874    0.0619    0.0000 C   0  0  0  0  0  0  0  0  0  0  0  0
    3.0884   -0.9569    0.0000 C   0  0  0  0  0  0  0  0  0  0  0  0
    4.5211   -0.5128    0.0000 C   0  0  0  0  0  0  0  0  0  0  0  0
    5.6221   -1.5316    0.0000 C   0  0  0  0  0  0  0  0  0  0  0  0
    7.0549   -1.0875    0.0000 C   0  0  0  0  0  0  0  0  0  0  0  0
    7.3867    0.3754    0.0000 C   0  0  0  0  0  0  0  0  0  0  0  0
    8.8194    0.8194    0.0000 N   0  0  0  0  0  4  0  0  0  0  0  0
    9.1512    2.2823    0.0000 O   0  0  0  0  0  0  0  0  0  0  0  0
    9.9204   -0.1993    0.0000 O   0  0  0  0  0  1  0  0  0  0  0  0
    6.2857    1.3941    0.0000 C   0  0  0  0  0  0  0  0  0  0  0  0
    4.8529    0.9501    0.0000 C   0  0  0  0  0  0  0  0  0  0  0  0
    0.5547   -0.3822    0.0000 N   0  0  0  0  0  0  0  0  0  0  0  0
   -0.5463    0.6366    0.0000 C   0  0  0  0  0  0  0  0  0  0  0  0
   -1.9790    0.1925    0.0000 C   0  0  0  0  0  0  0  0  0  0  0  0
   -2.3109   -1.2703    0.0000 N   0  0  0  0  0  0  0  0  0  0  0  0
   -3.7436   -1.7144    0.0000 C   0  0  0  0  0  0  0  0  0  0  0  0
   -4.8446   -0.6956    0.0000 C   0  0  0  0  0  0  0  0  0  0  0  0
   -6.2773   -1.1397    0.0000 C   0  0  0  0  0  0  0  0  0  0  0  0
   -7.3783   -0.1209    0.0000 C   0  0  0  0  0  0  0  0  0  0  0  0
   -7.0465    1.3419    0.0000 C   0  0  0  0  0  0  0  0  0  0  0  0
   -8.1474    2.3607    0.0000 C   0  0  0  0  0  0  0  0  0  0  0  0
   -9.5802    1.9166    0.0000 C   0  0  0  0  0  0  0  0  0  0  0  0
   -9.9120    0.4538    0.0000 C   0  0  0  0  0  0  0  0  0  0  0  0
   -8.8110   -0.5650    0.0000 C   0  0  0  0  0  0  0  0  0  0  0  0
   -1.2099   -2.2891    0.0000 C   0  0  0  0  0  0  0  0  0  0  0  0
    0.2229   -1.8450    0.0000 C   0  0  0  0  0  0  0  0  0  0  0  0
  1  2  2  0
  2  3  1  0
  3  4  1  0
  4  5  2  0
  5  6  1  0
  6  7  2  0
  7  8  1  0
  8  9  2  0
  8 10  1  0
  7 11  1  0
 11 12  2  0
  2 13  1  0
 13 14  1  0
 14 15  1  0
 15 16  1  0
 16 17  1  0
 17 18  1  0
 18 19  1  0
 19 20  1  0
 20 21  2  0
 21 22  1  0
 22 23  2  0
 23 24  1  0
 24 25  2  0
 16 26  1  0
 26 27  1  0
 12  4  1  0
 27 13  1  0
 25 20  1  0
M  CHG  2   8   1  10  -1
M  END
>  <ChemBL_ID>  (757) 
CHEMBL147575

>  <Compound_Key>  (757) 
4

>  <Ki>  (757) 
167.0

>  <database>  (757) 
CHEMBL

>  <Assay_ChEMBL_ID>  (757) 
CHEMBL808908

>  <Document_ChEMBL_ID>  (757) 
CHEMBL1131417

$$$$

     RDKit          2D

 30 33  0  0  0  0  0  0  0  0999 V2000
  -10.5666    0.2400    0.0000 C   0  0  0  0  0  0  0  0  0  0  0  0
   -9.2175   -0.4158    0.0000 N   0  0  0  0  0  0  0  0  0  0  0  0
   -8.9551   -1.8926    0.0000 C   0  0  0  0  0  0  0  0  0  0  0  0
   -9.9957   -2.9730    0.0000 O   0  0  0  0  0  0  0  0  0  0  0  0
   -7.4694   -2.0994    0.0000 S   0  0  0  0  0  0  0  0  0  0  0  0
   -6.8136   -0.7504    0.0000 C   0  0  0  0  0  0  0  0  0  0  0  0
   -5.3723   -0.3350    0.0000 C   0  0  0  0  0  0  0  0  0  0  0  0
   -5.0113    1.1209    0.0000 C   0  0  0  0  0  0  0  0  0  0  0  0
   -3.5700    1.5362    0.0000 C   0  0  0  0  0  0  0  0  0  0  0  0
   -2.4896    0.4957    0.0000 C   0  0  0  0  0  0  0  0  0  0  0  0
   -1.0483    0.9110    0.0000 C   0  0  0  0  0  0  0  0  0  0  0  0
    0.0321   -0.1295    0.0000 C   0  0  0  0  0  0  0  0  0  0  0  0
    1.4735    0.2858    0.0000 N   0  0  0  0  0  0  0  0  0  0  0  0
    2.5539   -0.7548    0.0000 C   0  0  0  0  0  0  0  0  0  0  0  0
    3.9952   -0.3394    0.0000 C   0  0  0  0  0  0  0  0  0  0  0  0
    4.3562    1.1165    0.0000 N   0  0  0  0  0  0  0  0  0  0  0  0
    5.7975    1.5319    0.0000 C   0  0  0  0  0  0  0  0  0  0  0  0
    6.8779    0.4913    0.0000 C   0  0  0  0  0  0  0  0  0  0  0  0
    6.5169   -0.9646    0.0000 C   0  0  0  0  0  0  0  0  0  0  0  0
    7.5973   -2.0052    0.0000 C   0  0  0  0  0  0  0  0  0  0  0  0
    9.0387   -1.5898    0.0000 C   0  0  0  0  0  0  0  0  0  0  0  0
   10.1190   -2.6304    0.0000 Cl  0  0  0  0  0  0  0  0  0  0  0  0
    9.3996   -0.1339    0.0000 C   0  0  0  0  0  0  0  0  0  0  0  0
   10.8410    0.2814    0.0000 Cl  0  0  0  0  0  0  0  0  0  0  0  0
    8.3192    0.9066    0.0000 C   0  0  0  0  0  0  0  0  0  0  0  0
    3.2758    2.1571    0.0000 C   0  0  0  0  0  0  0  0  0  0  0  0
    1.8344    1.7417    0.0000 C   0  0  0  0  0  0  0  0  0  0  0  0
   -6.0917    2.1615    0.0000 C   0  0  0  0  0  0  0  0  0  0  0  0
   -7.5331    1.7461    0.0000 C   0  0  0  0  0  0  0  0  0  0  0  0
   -7.8940    0.2902    0.0000 C   0  0  0  0  0  0  0  0  0  0  0  0
  1  2  1  0
  2  3  1  0
  3  4  2  0
  3  5  1  0
  5  6  1  0
  6  7  2  0
  7  8  1  0
  8  9  1  0
  9 10  1  0
 10 11  1  0
 11 12  1  0
 12 13  1  0
 13 14  1  0
 14 15  1  0
 15 16  1  0
 16 17  1  0
 17 18  1  0
 18 19  2  0
 19 20  1  0
 20 21  2  0
 21 22  1  0
 21 23  1  0
 23 24  1  0
 23 25  2  0
 16 26  1  0
 26 27  1  0
  8 28  2  0
 28 29  1  0
 29 30  2  0
 30  2  1  0
 30  6  1  0
 27 13  1  0
 25 18  1  0
M  END
>  <ChemBL_ID>  (758) 
CHEMBL15456

>  <Compound_Key>  (758) 
15

>  <Ki>  (758) 
2.0

>  <database>  (758) 
CHEMBL

>  <Assay_ChEMBL_ID>  (758) 
CHEMBL808286

>  <Document_ChEMBL_ID>  (758) 
CHEMBL1135280

$$$$

     RDKit          2D

 26 28  0  0  0  0  0  0  0  0999 V2000
   -9.6229   -2.0369    0.0000 C   0  0  0  0  0  0  0  0  0  0  0  0
   -8.1273   -1.9228    0.0000 O   0  0  0  0  0  0  0  0  0  0  0  0
   -7.4783   -0.5705    0.0000 C   0  0  0  0  0  0  0  0  0  0  0  0
   -8.3249    0.6677    0.0000 C   0  0  0  0  0  0  0  0  0  0  0  0
   -7.6759    2.0200    0.0000 C   0  0  0  0  0  0  0  0  0  0  0  0
   -6.1802    2.1341    0.0000 C   0  0  0  0  0  0  0  0  0  0  0  0
   -5.3336    0.8959    0.0000 C   0  0  0  0  0  0  0  0  0  0  0  0
   -3.8380    1.0100    0.0000 C   0  0  0  0  0  0  0  0  0  0  0  0
   -2.9913   -0.2282    0.0000 C   0  0  0  0  0  0  0  0  0  0  0  0
   -1.4957   -0.1141    0.0000 N   0  0  0  0  0  0  0  0  0  0  0  0
   -0.6490   -1.3523    0.0000 C   0  0  0  0  0  0  0  0  0  0  0  0
    0.8466   -1.2382    0.0000 C   0  0  0  0  0  0  0  0  0  0  0  0
    1.4957    0.1141    0.0000 N   0  0  0  0  0  0  0  0  0  0  0  0
    2.9913    0.2282    0.0000 C   0  0  0  0  0  0  0  0  0  0  0  0
    3.8380   -1.0100    0.0000 C   0  0  0  0  0  0  0  0  0  0  0  0
    5.3336   -0.8959    0.0000 C   0  0  0  0  0  0  0  0  0  0  0  0
    6.1802   -2.1341    0.0000 C   0  0  0  0  0  0  0  0  0  0  0  0
    7.6759   -2.0200    0.0000 C   0  0  0  0  0  0  0  0  0  0  0  0
    8.3249   -0.6677    0.0000 C   0  0  0  0  0  0  0  0  0  0  0  0
    7.4783    0.5705    0.0000 C   0  0  0  0  0  0  0  0  0  0  0  0
    8.1273    1.9228    0.0000 O   0  0  0  0  0  0  0  0  0  0  0  0
    9.6229    2.0369    0.0000 C   0  0  0  0  0  0  0  0  0  0  0  0
    5.9826    0.4564    0.0000 C   0  0  0  0  0  0  0  0  0  0  0  0
    0.6490    1.3523    0.0000 C   0  0  0  0  0  0  0  0  0  0  0  0
   -0.8466    1.2382    0.0000 C   0  0  0  0  0  0  0  0  0  0  0  0
   -5.9826   -0.4564    0.0000 C   0  0  0  0  0  0  0  0  0  0  0  0
  1  2  1  0
  2  3  1  0
  3  4  2  0
  4  5  1  0
  5  6  2  0
  6  7  1  0
  7  8  1  0
  8  9  1  0
  9 10  1  0
 10 11  1  0
 11 12  1  0
 12 13  1  0
 13 14  1  0
 14 15  1  0
 15 16  1  0
 16 17  2  0
 17 18  1  0
 18 19  2  0
 19 20  1  0
 20 21  1  0
 21 22  1  0
 20 23  2  0
 13 24  1  0
 24 25  1  0
  7 26  2  0
 26  3  1  0
 25 10  1  0
 23 16  1  0
M  END
>  <ChemBL_ID>  (759) 
CHEMBL146546

>  <Compound_Key>  (759) 
22

>  <Ki>  (759) 
29.0

>  <database>  (759) 
CHEMBL

>  <Assay_ChEMBL_ID>  (759) 
CHEMBL808908

>  <Document_ChEMBL_ID>  (759) 
CHEMBL1131417

$$$$

     RDKit          2D

 25 28  0  0  0  0  0  0  0  0999 V2000
   -5.6360   -2.7757    0.0000 C   0  0  0  0  0  0  0  0  0  0  0  0
   -4.6212   -1.6711    0.0000 N   0  0  0  0  0  0  0  0  0  0  0  0
   -3.1311   -1.8429    0.0000 C   0  0  0  0  0  0  0  0  0  0  0  0
   -2.5072   -0.4788    0.0000 C   0  0  0  0  0  0  0  0  0  0  0  0
   -1.5148   -1.6035    0.0000 C   0  0  0  0  0  0  0  0  0  0  0  0
   -0.0445   -1.3064    0.0000 C   0  0  0  0  0  0  0  0  0  0  0  0
    0.4333    0.1155    0.0000 N   0  0  0  0  0  0  0  0  0  0  0  0
    1.9036    0.4126    0.0000 C   0  0  0  0  0  0  0  0  0  0  0  0
    2.8961   -0.7121    0.0000 C   0  0  0  0  0  0  0  0  0  0  0  0
    2.4182   -2.1340    0.0000 O   0  0  0  0  0  0  0  0  0  0  0  0
    4.3663   -0.4150    0.0000 C   0  0  0  0  0  0  0  0  0  0  0  0
    5.3588   -1.5397    0.0000 C   0  0  0  0  0  0  0  0  0  0  0  0
    6.8291   -1.2426    0.0000 C   0  0  0  0  0  0  0  0  0  0  0  0
    7.3069    0.1793    0.0000 C   0  0  0  0  0  0  0  0  0  0  0  0
    6.3144    1.3040    0.0000 C   0  0  0  0  0  0  0  0  0  0  0  0
    6.7922    2.7259    0.0000 Br  0  0  0  0  0  0  0  0  0  0  0  0
    4.8441    1.0069    0.0000 C   0  0  0  0  0  0  0  0  0  0  0  0
   -0.5591    1.2402    0.0000 C   0  0  0  0  0  0  0  0  0  0  0  0
   -2.0294    0.9431    0.0000 C   0  0  0  0  0  0  0  0  0  0  0  0
   -3.6118    0.5361    0.0000 C   0  0  0  0  0  0  0  0  0  0  0  0
   -3.5968    2.0360    0.0000 C   0  0  0  0  0  0  0  0  0  0  0  0
   -4.8882    2.7990    0.0000 C   0  0  0  0  0  0  0  0  0  0  0  0
   -6.1947    2.0620    0.0000 C   0  0  0  0  0  0  0  0  0  0  0  0
   -6.2098    0.5621    0.0000 C   0  0  0  0  0  0  0  0  0  0  0  0
   -4.9183   -0.2009    0.0000 C   0  0  0  0  0  0  0  0  0  0  0  0
  1  2  1  0
  2  3  1  0
  3  4  1  0
  4  5  1  0
  5  6  1  0
  6  7  1  0
  7  8  1  0
  8  9  1  0
  9 10  1  1
  9 11  1  0
 11 12  2  0
 12 13  1  0
 13 14  2  0
 14 15  1  0
 15 16  1  0
 15 17  2  0
  7 18  1  0
 18 19  1  0
  4 20  1  0
 20 21  2  0
 21 22  1  0
 22 23  2  0
 23 24  1  0
 24 25  2  0
 25  2  1  0
 19  4  1  0
 25 20  1  0
 17 11  1  0
M  END
>  <ChemBL_ID>  (760) 
CHEMBL126257

>  <Compound_Key>  (760) 
23a

>  <Ki>  (760) 
99.2

>  <database>  (760) 
CHEMBL

>  <Assay_ChEMBL_ID>  (760) 
CHEMBL808909

>  <Document_ChEMBL_ID>  (760) 
CHEMBL1130429

$$$$

     RDKit          2D

 26 29  0  0  0  0  0  0  0  0999 V2000
   -5.2350   -3.4509    0.0000 C   0  0  0  0  0  0  0  0  0  0  0  0
   -4.5630   -2.1098    0.0000 N   0  0  0  0  0  0  0  0  0  0  0  0
   -3.0831   -1.8652    0.0000 C   0  0  0  0  0  0  0  0  0  0  0  0
   -2.8585   -0.3821    0.0000 C   0  0  0  0  0  0  0  0  0  0  0  0
   -1.5950   -1.1905    0.0000 C   0  0  0  0  0  0  0  0  0  0  0  0
   -0.2631   -0.5005    0.0000 C   0  0  0  0  0  0  0  0  0  0  0  0
   -0.1947    0.9979    0.0000 N   0  0  0  0  0  0  0  0  0  0  0  0
    1.1372    1.6879    0.0000 C   0  0  0  0  0  0  0  0  0  0  0  0
    2.4007    0.8794    0.0000 C   0  0  0  0  0  0  0  0  0  0  0  0
    2.3323   -0.6190    0.0000 O   0  0  0  0  0  0  0  0  0  0  0  0
    3.7326    1.5694    0.0000 C   0  0  0  0  0  0  0  0  0  0  0  0
    4.9961    0.7610    0.0000 C   0  0  0  0  0  0  0  0  0  0  0  0
    4.9277   -0.7375    0.0000 C   0  0  0  0  0  0  0  0  0  0  0  0
    6.1912   -1.5459    0.0000 C   0  0  0  0  0  0  0  0  0  0  0  0
    7.5230   -0.8559    0.0000 C   0  0  0  0  0  0  0  0  0  0  0  0
    8.7865   -1.6644    0.0000 Br  0  0  0  0  0  0  0  0  0  0  0  0
    7.5914    0.6425    0.0000 C   0  0  0  0  0  0  0  0  0  0  0  0
    6.3279    1.4510    0.0000 C   0  0  0  0  0  0  0  0  0  0  0  0
   -1.4582    1.8064    0.0000 C   0  0  0  0  0  0  0  0  0  0  0  0
   -2.7901    1.1164    0.0000 C   0  0  0  0  0  0  0  0  0  0  0  0
   -4.1995    0.2899    0.0000 C   0  0  0  0  0  0  0  0  0  0  0  0
   -4.5975    1.7361    0.0000 C   0  0  0  0  0  0  0  0  0  0  0  0
   -6.0490    2.1146    0.0000 C   0  0  0  0  0  0  0  0  0  0  0  0
   -7.1025    1.0468    0.0000 C   0  0  0  0  0  0  0  0  0  0  0  0
   -6.7045   -0.3995    0.0000 C   0  0  0  0  0  0  0  0  0  0  0  0
   -5.2530   -0.7779    0.0000 C   0  0  0  0  0  0  0  0  0  0  0  0
  1  2  1  0
  2  3  1  0
  3  4  1  0
  4  5  1  0
  5  6  1  0
  6  7  1  0
  7  8  1  0
  8  9  1  0
  9 10  1  1
  9 11  1  0
 11 12  1  0
 12 13  2  0
 13 14  1  0
 14 15  2  0
 15 16  1  0
 15 17  1  0
 17 18  2  0
  7 19  1  0
 19 20  1  0
  4 21  1  0
 21 22  2  0
 22 23  1  0
 23 24  2  0
 24 25  1  0
 25 26  2  0
 26  2  1  0
 20  4  1  0
 26 21  1  0
 18 12  1  0
M  END
>  <ChemBL_ID>  (761) 
CHEMBL338140

>  <Compound_Key>  (761) 
22a

>  <Ki>  (761) 
22.9

>  <database>  (761) 
CHEMBL

>  <Assay_ChEMBL_ID>  (761) 
CHEMBL808909

>  <Document_ChEMBL_ID>  (761) 
CHEMBL1130429

$$$$

     RDKit          2D

 29 33  0  0  0  0  0  0  0  0999 V2000
    0.8278   -3.8318    0.0000 O   0  0  0  0  0  0  0  0  0  0  0  0
   -0.5556   -3.2519    0.0000 C   0  0  0  0  0  0  0  0  0  0  0  0
   -1.7494   -4.1601    0.0000 C   0  0  0  0  0  0  0  0  0  0  0  0
   -3.1328   -3.5802    0.0000 C   0  0  0  0  0  0  0  0  0  0  0  0
   -3.3224   -2.0922    0.0000 N   0  0  0  0  0  0  0  0  0  0  0  0
   -4.7058   -1.5124    0.0000 C   0  0  0  0  0  0  0  0  0  0  0  0
   -4.8953   -0.0244    0.0000 C   0  0  0  0  0  0  0  0  0  0  0  0
   -3.7015    0.8837    0.0000 C   0  0  0  0  0  0  0  0  0  0  0  0
   -3.8910    2.3717    0.0000 C   0  0  0  0  0  0  0  0  0  0  0  0
   -5.2744    2.9515    0.0000 C   0  0  0  0  0  0  0  0  0  0  0  0
   -5.4639    4.4395    0.0000 F   0  0  0  0  0  0  0  0  0  0  0  0
   -6.4683    2.0434    0.0000 C   0  0  0  0  0  0  0  0  0  0  0  0
   -6.2787    0.5554    0.0000 C   0  0  0  0  0  0  0  0  0  0  0  0
   -2.1285   -1.1841    0.0000 C   0  0  0  0  0  0  0  0  0  0  0  0
   -0.7451   -1.7639    0.0000 C   0  0  0  0  0  0  0  0  0  0  0  0
    0.4487   -0.8558    0.0000 N   0  0  0  0  0  0  0  0  0  0  0  0
    1.8321   -1.4356    0.0000 C   0  0  0  0  0  0  0  0  0  0  0  0
    3.0260   -0.5275    0.0000 C   0  0  0  0  0  0  0  0  0  0  0  0
    2.8364    0.9605    0.0000 C   0  0  0  0  0  0  0  0  0  0  0  0
    2.8035    2.4601    0.0000 C   0  0  0  0  0  0  0  0  0  0  0  0
    4.2195    2.9549    0.0000 C   0  0  0  0  0  0  0  0  0  0  0  0
    5.1277    1.7610    0.0000 C   0  0  0  0  0  0  0  0  0  0  0  0
    6.6225    1.6371    0.0000 C   0  0  0  0  0  0  0  0  0  0  0  0
    7.2626    0.2805    0.0000 C   0  0  0  0  0  0  0  0  0  0  0  0
    6.4078   -0.9521    0.0000 C   0  0  0  0  0  0  0  0  0  0  0  0
    4.9129   -0.8282    0.0000 C   0  0  0  0  0  0  0  0  0  0  0  0
    4.2729    0.5284    0.0000 C   0  0  0  0  0  0  0  0  0  0  0  0
    1.4530    1.5403    0.0000 C   0  0  0  0  0  0  0  0  0  0  0  0
    0.2592    0.6322    0.0000 C   0  0  0  0  0  0  0  0  0  0  0  0
  2  1  1  6
  2  3  1  0
  3  4  1  0
  4  5  1  0
  5  6  1  0
  6  7  1  0
  7  8  2  0
  8  9  1  0
  9 10  2  0
 10 11  1  0
 10 12  1  0
 12 13  2  0
  5 14  1  0
 14 15  1  0
 15 16  1  1
 16 17  1  0
 17 18  1  0
 18 19  1  0
 19 20  1  0
 20 21  1  0
 21 22  1  0
 22 23  2  0
 23 24  1  0
 24 25  2  0
 25 26  1  0
 26 27  2  0
 19 28  1  0
 28 29  1  0
 15  2  1  0
 29 16  1  0
 13  7  1  0
 27 19  1  0
 27 22  1  0
M  END
>  <ChemBL_ID>  (762) 
CHEMBL87414

>  <Compound_Key>  (762) 
20b

>  <Ki>  (762) 
67.0

>  <database>  (762) 
CHEMBL

>  <Assay_ChEMBL_ID>  (762) 
CHEMBL808909

>  <Document_ChEMBL_ID>  (762) 
CHEMBL1130429

$$$$

     RDKit          2D

 30 34  0  0  0  0  0  0  0  0999 V2000
   -4.8177   -4.0334    0.0000 C   0  0  0  0  0  0  0  0  0  0  0  0
   -4.3032   -2.6244    0.0000 N   0  0  0  0  0  0  0  0  0  0  0  0
   -2.8609   -2.2124    0.0000 C   0  0  0  0  0  0  0  0  0  0  0  0
   -2.8070   -0.7134    0.0000 C   0  0  0  0  0  0  0  0  0  0  0  0
   -1.4595   -1.3723    0.0000 C   0  0  0  0  0  0  0  0  0  0  0  0
   -0.2150   -0.5348    0.0000 C   0  0  0  0  0  0  0  0  0  0  0  0
   -0.3181    0.9617    0.0000 N   0  0  0  0  0  0  0  0  0  0  0  0
    0.9263    1.7992    0.0000 C   0  0  0  0  0  0  0  0  0  0  0  0
    2.2738    1.1402    0.0000 C   0  0  0  0  0  0  0  0  0  0  0  0
    3.5182    1.9777    0.0000 N   0  0  0  0  0  0  0  0  0  0  0  0
    4.8657    1.3188    0.0000 C   0  0  0  0  0  0  0  0  0  0  0  0
    4.9688   -0.1777    0.0000 C   0  0  0  0  0  0  0  0  0  0  0  0
    3.7244   -1.0152    0.0000 C   0  0  0  0  0  0  0  0  0  0  0  0
    3.8275   -2.5116    0.0000 C   0  0  0  0  0  0  0  0  0  0  0  0
    5.1750   -3.1706    0.0000 C   0  0  0  0  0  0  0  0  0  0  0  0
    6.4194   -2.3330    0.0000 C   0  0  0  0  0  0  0  0  0  0  0  0
    7.7670   -2.9920    0.0000 I   0  0  0  0  0  0  0  0  0  0  0  0
    6.3163   -0.8366    0.0000 C   0  0  0  0  0  0  0  0  0  0  0  0
    3.4151    3.4742    0.0000 C   0  0  0  0  0  0  0  0  0  0  0  0
    2.0676    4.1331    0.0000 C   0  0  0  0  0  0  0  0  0  0  0  0
    0.8232    3.2956    0.0000 C   0  0  0  0  0  0  0  0  0  0  0  0
   -0.5243    3.9546    0.0000 O   0  0  0  0  0  0  0  0  0  0  0  0
   -1.6657    1.6206    0.0000 C   0  0  0  0  0  0  0  0  0  0  0  0
   -2.9101    0.7831    0.0000 C   0  0  0  0  0  0  0  0  0  0  0  0
   -4.2160   -0.1989    0.0000 C   0  0  0  0  0  0  0  0  0  0  0  0
   -4.7765    1.1925    0.0000 C   0  0  0  0  0  0  0  0  0  0  0  0
   -6.2617    1.4028    0.0000 C   0  0  0  0  0  0  0  0  0  0  0  0
   -7.1864    0.2217    0.0000 C   0  0  0  0  0  0  0  0  0  0  0  0
   -6.6259   -1.1697    0.0000 C   0  0  0  0  0  0  0  0  0  0  0  0
   -5.1407   -1.3800    0.0000 C   0  0  0  0  0  0  0  0  0  0  0  0
  1  2  1  0
  2  3  1  0
  3  4  1  0
  4  5  1  0
  5  6  1  0
  6  7  1  0
  8  7  1  1
  8  9  1  0
  9 10  1  0
 10 11  1  0
 11 12  1  0
 12 13  2  0
 13 14  1  0
 14 15  2  0
 15 16  1  0
 16 17  1  0
 16 18  2  0
 10 19  1  0
 19 20  1  0
 20 21  1  0
 21 22  1  6
  7 23  1  0
 23 24  1  0
  4 25  1  0
 25 26  2  0
 26 27  1  0
 27 28  2  0
 28 29  1  0
 29 30  2  0
 30  2  1  0
 24  4  1  0
 30 25  1  0
 21  8  1  0
 18 12  1  0
M  END
>  <ChemBL_ID>  (763) 
CHEMBL340815

>  <Compound_Key>  (763) 
21a

>  <Ki>  (763) 
139.2

>  <database>  (763) 
CHEMBL

>  <Assay_ChEMBL_ID>  (763) 
CHEMBL808909

>  <Document_ChEMBL_ID>  (763) 
CHEMBL1130429

$$$$

     RDKit          2D

 26 29  0  0  0  0  0  0  0  0999 V2000
   -3.7509    2.2155    0.0000 O   0  0  0  0  0  0  0  0  0  0  0  0
   -4.0536    0.7464    0.0000 C   0  0  0  0  0  0  0  0  0  0  0  0
   -2.9326   -0.2504    0.0000 C   0  0  0  0  0  0  0  0  0  0  0  0
   -1.5090    0.2220    0.0000 C   0  0  0  0  0  0  0  0  0  0  0  0
   -0.3880   -0.7747    0.0000 C   0  0  0  0  0  0  0  0  0  0  0  0
    1.0357   -0.3023    0.0000 N   0  0  0  0  0  0  0  0  0  0  0  0
    2.1566   -1.2990    0.0000 C   0  0  0  0  0  0  0  0  0  0  0  0
    3.5803   -0.8266    0.0000 C   0  0  0  0  0  0  0  0  0  0  0  0
    3.8830    0.6425    0.0000 C   0  0  0  0  0  0  0  0  0  0  0  0
    4.3376    2.0720    0.0000 C   0  0  0  0  0  0  0  0  0  0  0  0
    5.8376    2.0813    0.0000 C   0  0  0  0  0  0  0  0  0  0  0  0
    6.3100    0.6576    0.0000 C   0  0  0  0  0  0  0  0  0  0  0  0
    7.6841    0.0561    0.0000 C   0  0  0  0  0  0  0  0  0  0  0  0
    7.8502   -1.4347    0.0000 C   0  0  0  0  0  0  0  0  0  0  0  0
    6.6422   -2.3239    0.0000 C   0  0  0  0  0  0  0  0  0  0  0  0
    5.2681   -1.7224    0.0000 C   0  0  0  0  0  0  0  0  0  0  0  0
    5.1020   -0.2316    0.0000 C   0  0  0  0  0  0  0  0  0  0  0  0
    2.7621    1.6392    0.0000 C   0  0  0  0  0  0  0  0  0  0  0  0
    1.3384    1.1668    0.0000 C   0  0  0  0  0  0  0  0  0  0  0  0
   -5.4772    0.2740    0.0000 C   0  0  0  0  0  0  0  0  0  0  0  0
   -6.5982    1.2707    0.0000 C   0  0  0  0  0  0  0  0  0  0  0  0
   -8.0219    0.7983    0.0000 C   0  0  0  0  0  0  0  0  0  0  0  0
   -8.3246   -0.6708    0.0000 C   0  0  0  0  0  0  0  0  0  0  0  0
   -9.7483   -1.1433    0.0000 F   0  0  0  0  0  0  0  0  0  0  0  0
   -7.2036   -1.6676    0.0000 C   0  0  0  0  0  0  0  0  0  0  0  0
   -5.7800   -1.1952    0.0000 C   0  0  0  0  0  0  0  0  0  0  0  0
  1  2  2  0
  2  3  1  0
  3  4  1  0
  4  5  1  0
  5  6  1  0
  6  7  1  0
  7  8  1  0
  8  9  1  0
  9 10  1  0
 10 11  1  0
 11 12  1  0
 12 13  2  0
 13 14  1  0
 14 15  2  0
 15 16  1  0
 16 17  2  0
  9 18  1  0
 18 19  1  0
  2 20  1  0
 20 21  2  0
 21 22  1  0
 22 23  2  0
 23 24  1  0
 23 25  1  0
 25 26  2  0
 19  6  1  0
 26 20  1  0
 17  9  1  0
 17 12  1  0
M  END
>  <ChemBL_ID>  (764) 
CHEMBL341139

>  <Compound_Key>  (764) 
24b

>  <Ki>  (764) 
3.3

>  <database>  (764) 
CHEMBL

>  <Assay_ChEMBL_ID>  (764) 
CHEMBL808909

>  <Document_ChEMBL_ID>  (764) 
CHEMBL1130429

$$$$

     RDKit          2D

 29 33  0  0  0  0  0  0  0  0999 V2000
    0.8777   -3.7768    0.0000 O   0  0  0  0  0  0  0  0  0  0  0  0
   -0.5007   -3.1851    0.0000 C   0  0  0  0  0  0  0  0  0  0  0  0
   -1.7023   -4.0829    0.0000 C   0  0  0  0  0  0  0  0  0  0  0  0
   -3.0806   -3.4912    0.0000 C   0  0  0  0  0  0  0  0  0  0  0  0
   -3.2574   -2.0017    0.0000 N   0  0  0  0  0  0  0  0  0  0  0  0
   -4.6357   -1.4100    0.0000 C   0  0  0  0  0  0  0  0  0  0  0  0
   -4.8125    0.0796    0.0000 C   0  0  0  0  0  0  0  0  0  0  0  0
   -3.6109    0.9774    0.0000 C   0  0  0  0  0  0  0  0  0  0  0  0
   -3.7876    2.4670    0.0000 C   0  0  0  0  0  0  0  0  0  0  0  0
   -5.1660    3.0587    0.0000 C   0  0  0  0  0  0  0  0  0  0  0  0
   -6.3676    2.1609    0.0000 C   0  0  0  0  0  0  0  0  0  0  0  0
   -7.7459    2.7526    0.0000 I   0  0  0  0  0  0  0  0  0  0  0  0
   -6.1908    0.6713    0.0000 C   0  0  0  0  0  0  0  0  0  0  0  0
   -2.0558   -1.1038    0.0000 C   0  0  0  0  0  0  0  0  0  0  0  0
   -0.6774   -1.6955    0.0000 C   0  0  0  0  0  0  0  0  0  0  0  0
    0.5242   -0.7977    0.0000 N   0  0  0  0  0  0  0  0  0  0  0  0
    1.9026   -1.3894    0.0000 C   0  0  0  0  0  0  0  0  0  0  0  0
    3.1042   -0.4916    0.0000 C   0  0  0  0  0  0  0  0  0  0  0  0
    2.9275    0.9980    0.0000 C   0  0  0  0  0  0  0  0  0  0  0  0
    2.9074    2.4978    0.0000 C   0  0  0  0  0  0  0  0  0  0  0  0
    4.3276    2.9804    0.0000 C   0  0  0  0  0  0  0  0  0  0  0  0
    5.2255    1.7788    0.0000 C   0  0  0  0  0  0  0  0  0  0  0  0
    6.7192    1.6420    0.0000 C   0  0  0  0  0  0  0  0  0  0  0  0
    7.3476    0.2799    0.0000 C   0  0  0  0  0  0  0  0  0  0  0  0
    6.4823   -0.9453    0.0000 C   0  0  0  0  0  0  0  0  0  0  0  0
    4.9885   -0.8085    0.0000 C   0  0  0  0  0  0  0  0  0  0  0  0
    4.3601    0.5536    0.0000 C   0  0  0  0  0  0  0  0  0  0  0  0
    1.5491    1.5897    0.0000 C   0  0  0  0  0  0  0  0  0  0  0  0
    0.3475    0.6918    0.0000 C   0  0  0  0  0  0  0  0  0  0  0  0
  2  1  1  6
  2  3  1  0
  3  4  1  0
  4  5  1  0
  5  6  1  0
  6  7  1  0
  7  8  2  0
  8  9  1  0
  9 10  2  0
 10 11  1  0
 11 12  1  0
 11 13  2  0
  5 14  1  0
 14 15  1  0
 15 16  1  1
 16 17  1  0
 17 18  1  0
 18 19  1  0
 19 20  1  0
 20 21  1  0
 21 22  1  0
 22 23  2  0
 23 24  1  0
 24 25  2  0
 25 26  1  0
 26 27  2  0
 19 28  1  0
 28 29  1  0
 15  2  1  0
 29 16  1  0
 13  7  1  0
 27 19  1  0
 27 22  1  0
M  END
>  <ChemBL_ID>  (765) 
CHEMBL314170

>  <Compound_Key>  (765) 
21b

>  <Ki>  (765) 
224.0

>  <database>  (765) 
CHEMBL

>  <Assay_ChEMBL_ID>  (765) 
CHEMBL808909

>  <Document_ChEMBL_ID>  (765) 
CHEMBL1130429

$$$$

     RDKit          2D

 24 27  0  0  0  0  0  0  0  0999 V2000
    1.2685   -1.9855    0.0000 O   0  0  0  0  0  0  0  0  0  0  0  0
    2.1186   -0.7497    0.0000 S   0  0  0  0  0  0  0  0  0  0  0  0
    2.9017   -2.0291    0.0000 O   0  0  0  0  0  0  0  0  0  0  0  0
    3.5146   -0.2007    0.0000 C   0  0  0  0  0  0  0  0  0  0  0  0
    4.6880   -1.1351    0.0000 C   0  0  0  0  0  0  0  0  0  0  0  0
    6.0839   -0.5861    0.0000 C   0  0  0  0  0  0  0  0  0  0  0  0
    6.3064    0.8974    0.0000 C   0  0  0  0  0  0  0  0  0  0  0  0
    5.1329    1.8317    0.0000 C   0  0  0  0  0  0  0  0  0  0  0  0
    3.7370    1.2827    0.0000 C   0  0  0  0  0  0  0  0  0  0  0  0
    2.5636    2.2171    0.0000 C   0  0  0  0  0  0  0  0  0  0  0  0
    1.1677    1.6681    0.0000 C   0  0  0  0  0  0  0  0  0  0  0  0
    0.9452    0.1846    0.0000 C   0  0  0  0  0  0  0  0  0  0  0  0
   -0.2282    1.1190    0.0000 C   0  0  0  0  0  0  0  0  0  0  0  0
   -1.6241    0.5700    0.0000 C   0  0  0  0  0  0  0  0  0  0  0  0
   -1.8466   -0.9134    0.0000 N   0  0  0  0  0  0  0  0  0  0  0  0
   -3.2425   -1.4624    0.0000 C   0  0  0  0  0  0  0  0  0  0  0  0
   -4.4159   -0.5281    0.0000 C   0  0  0  0  0  0  0  0  0  0  0  0
   -4.1935    0.9554    0.0000 C   0  0  0  0  0  0  0  0  0  0  0  0
   -5.3669    1.8897    0.0000 C   0  0  0  0  0  0  0  0  0  0  0  0
   -6.7628    1.3407    0.0000 C   0  0  0  0  0  0  0  0  0  0  0  0
   -6.9853   -0.1427    0.0000 C   0  0  0  0  0  0  0  0  0  0  0  0
   -5.8119   -1.0771    0.0000 C   0  0  0  0  0  0  0  0  0  0  0  0
   -0.6732   -1.8478    0.0000 C   0  0  0  0  0  0  0  0  0  0  0  0
    0.7227   -1.2988    0.0000 C   0  0  0  0  0  0  0  0  0  0  0  0
  1  2  2  0
  2  3  2  0
  2  4  1  0
  4  5  2  0
  5  6  1  0
  6  7  2  0
  7  8  1  0
  8  9  2  0
  9 10  1  0
 10 11  1  0
 11 12  1  0
 12 13  1  0
 13 14  1  0
 14 15  1  0
 15 16  1  0
 16 17  1  0
 17 18  2  0
 18 19  1  0
 19 20  2  0
 20 21  1  0
 21 22  2  0
 15 23  1  0
 23 24  1  0
 12  2  1  0
 22 17  1  0
  9  4  1  0
 24 12  1  0
M  END
>  <ChemBL_ID>  (766) 
CHEMBL38904

>  <Compound_Key>  (766) 
4

>  <Ki>  (766) 
1800.0

>  <database>  (766) 
CHEMBL

>  <Assay_ChEMBL_ID>  (766) 
CHEMBL805217

>  <Document_ChEMBL_ID>  (766) 
CHEMBL1131209

$$$$

     RDKit          2D

 19 21  0  0  0  0  0  0  0  0999 V2000
   -2.9149   -2.3747    0.0000 O   0  0  0  0  0  0  0  0  0  0  0  0
   -3.6254   -1.0537    0.0000 C   0  0  0  0  0  0  0  0  0  0  0  0
   -5.1248   -1.0086    0.0000 C   0  0  0  0  0  0  0  0  0  0  0  0
   -5.8353    0.3124    0.0000 C   0  0  0  0  0  0  0  0  0  0  0  0
   -5.0466    1.5883    0.0000 C   0  0  0  0  0  0  0  0  0  0  0  0
   -3.5473    1.5432    0.0000 C   0  0  0  0  0  0  0  0  0  0  0  0
   -2.8367    0.2222    0.0000 C   0  0  0  0  0  0  0  0  0  0  0  0
   -1.3374    0.1771    0.0000 N   0  0  0  0  0  0  0  0  0  0  0  0
   -0.6268   -1.1440    0.0000 C   0  0  0  0  0  0  0  0  0  0  0  0
    0.8725   -1.1891    0.0000 C   0  0  0  0  0  0  0  0  0  0  0  0
    1.6613    0.0868    0.0000 C   0  0  0  0  0  0  0  0  0  0  0  0
    3.1606    0.0417    0.0000 C   0  0  0  0  0  0  0  0  0  0  0  0
    3.8712   -1.2793    0.0000 C   0  0  0  0  0  0  0  0  0  0  0  0
    5.3705   -1.3245    0.0000 C   0  0  0  0  0  0  0  0  0  0  0  0
    6.1592   -0.0486    0.0000 C   0  0  0  0  0  0  0  0  0  0  0  0
    5.4486    1.2725    0.0000 C   0  0  0  0  0  0  0  0  0  0  0  0
    3.9493    1.3176    0.0000 C   0  0  0  0  0  0  0  0  0  0  0  0
    0.9507    1.4078    0.0000 C   0  0  0  0  0  0  0  0  0  0  0  0
   -0.5486    1.4529    0.0000 C   0  0  0  0  0  0  0  0  0  0  0  0
  2  1  1  6
  2  3  1  0
  3  4  1  0
  4  5  1  0
  5  6  1  0
  6  7  1  0
  7  8  1  1
  8  9  1  0
  9 10  1  0
 10 11  1  0
 11 12  1  0
 12 13  2  0
 13 14  1  0
 14 15  2  0
 15 16  1  0
 16 17  2  0
 11 18  1  0
 18 19  1  0
  7  2  1  0
 19  8  1  0
 17 12  1  0
M  END
>  <ChemBL_ID>  (767) 
CHEMBL20730

>  <Compound_Key>  (767) 
Vesamicol

>  <Ki>  (767) 
34.0

>  <database>  (767) 
CHEMBL

>  <Assay_ChEMBL_ID>  (767) 
CHEMBL808909

>  <Document_ChEMBL_ID>  (767) 
CHEMBL1130429

$$$$

     RDKit          2D

 25 28  0  0  0  0  0  0  0  0999 V2000
   -2.1473    0.6847    0.0000 O   0  0  0  0  0  0  0  0  0  0  0  0
   -2.1649   -0.8152    0.0000 C   0  0  0  0  0  0  0  0  0  0  0  0
   -3.4727   -1.5499    0.0000 C   0  0  0  0  0  0  0  0  0  0  0  0
   -4.7628   -0.7848    0.0000 C   0  0  0  0  0  0  0  0  0  0  0  0
   -4.7452    0.7151    0.0000 C   0  0  0  0  0  0  0  0  0  0  0  0
   -6.0354    1.4803    0.0000 C   0  0  0  0  0  0  0  0  0  0  0  0
   -7.3431    0.7456    0.0000 C   0  0  0  0  0  0  0  0  0  0  0  0
   -8.6333    1.5108    0.0000 Br  0  0  0  0  0  0  0  0  0  0  0  0
   -7.3607   -0.7543    0.0000 C   0  0  0  0  0  0  0  0  0  0  0  0
   -6.0706   -1.5195    0.0000 C   0  0  0  0  0  0  0  0  0  0  0  0
   -0.8748   -1.5804    0.0000 C   0  0  0  0  0  0  0  0  0  0  0  0
    0.4330   -0.8457    0.0000 N   0  0  0  0  0  0  0  0  0  0  0  0
    1.7231   -1.6109    0.0000 C   0  0  0  0  0  0  0  0  0  0  0  0
    3.0309   -0.8761    0.0000 C   0  0  0  0  0  0  0  0  0  0  0  0
    3.0485    0.6238    0.0000 C   0  0  0  0  0  0  0  0  0  0  0  0
    3.2227    2.1136    0.0000 C   0  0  0  0  0  0  0  0  0  0  0  0
    4.6935    2.4082    0.0000 C   0  0  0  0  0  0  0  0  0  0  0  0
    5.4282    1.1005    0.0000 C   0  0  0  0  0  0  0  0  0  0  0  0
    6.8917    0.7714    0.0000 C   0  0  0  0  0  0  0  0  0  0  0  0
    7.3385   -0.6605    0.0000 C   0  0  0  0  0  0  0  0  0  0  0  0
    6.3218   -1.7634    0.0000 C   0  0  0  0  0  0  0  0  0  0  0  0
    4.8583   -1.4343    0.0000 C   0  0  0  0  0  0  0  0  0  0  0  0
    4.4115   -0.0024    0.0000 C   0  0  0  0  0  0  0  0  0  0  0  0
    1.7583    1.3889    0.0000 C   0  0  0  0  0  0  0  0  0  0  0  0
    0.4506    0.6542    0.0000 C   0  0  0  0  0  0  0  0  0  0  0  0
  2  1  1  1
  2  3  1  0
  3  4  1  0
  4  5  2  0
  5  6  1  0
  6  7  2  0
  7  8  1  0
  7  9  1  0
  9 10  2  0
  2 11  1  0
 11 12  1  0
 12 13  1  0
 13 14  1  0
 14 15  1  0
 15 16  1  0
 16 17  1  0
 17 18  1  0
 18 19  2  0
 19 20  1  0
 20 21  2  0
 21 22  1  0
 22 23  2  0
 15 24  1  0
 24 25  1  0
 10  4  1  0
 25 12  1  0
 23 15  1  0
 23 18  1  0
M  END
>  <ChemBL_ID>  (768) 
CHEMBL340185

>  <Compound_Key>  (768) 
22b

>  <Ki>  (768) 
8.8

>  <database>  (768) 
CHEMBL

>  <Assay_ChEMBL_ID>  (768) 
CHEMBL808909

>  <Document_ChEMBL_ID>  (768) 
CHEMBL1130429

$$$$

     RDKit          2D

 21 24  0  0  0  0  0  0  0  0999 V2000
   -2.4919   -2.3961    0.0000 O   0  0  0  0  0  0  0  0  0  0  0  0
   -3.4531   -1.2446    0.0000 C   0  0  0  0  0  0  0  0  0  0  0  0
   -4.9310   -1.5013    0.0000 C   0  0  0  0  0  0  0  0  0  0  0  0
   -5.8922   -0.3497    0.0000 C   0  0  0  0  0  0  0  0  0  0  0  0
   -5.3756    1.0585    0.0000 C   0  0  0  0  0  0  0  0  0  0  0  0
   -3.8977    1.3152    0.0000 C   0  0  0  0  0  0  0  0  0  0  0  0
   -2.9365    0.1636    0.0000 C   0  0  0  0  0  0  0  0  0  0  0  0
   -1.4586    0.4203    0.0000 N   0  0  0  0  0  0  0  0  0  0  0  0
   -0.4974   -0.7312    0.0000 C   0  0  0  0  0  0  0  0  0  0  0  0
    0.9805   -0.4745    0.0000 C   0  0  0  0  0  0  0  0  0  0  0  0
    1.4972    0.9337    0.0000 C   0  0  0  0  0  0  0  0  0  0  0  0
    2.1582    2.2802    0.0000 C   0  0  0  0  0  0  0  0  0  0  0  0
    3.6430    2.0676    0.0000 C   0  0  0  0  0  0  0  0  0  0  0  0
    3.8997    0.5897    0.0000 C   0  0  0  0  0  0  0  0  0  0  0  0
    5.1697   -0.2084    0.0000 C   0  0  0  0  0  0  0  0  0  0  0  0
    5.1135   -1.7073    0.0000 C   0  0  0  0  0  0  0  0  0  0  0  0
    3.7873   -2.4082    0.0000 C   0  0  0  0  0  0  0  0  0  0  0  0
    2.5173   -1.6100    0.0000 C   0  0  0  0  0  0  0  0  0  0  0  0
    2.5735   -0.1111    0.0000 C   0  0  0  0  0  0  0  0  0  0  0  0
    0.5359    2.0852    0.0000 C   0  0  0  0  0  0  0  0  0  0  0  0
   -0.9420    1.8285    0.0000 C   0  0  0  0  0  0  0  0  0  0  0  0
  2  1  1  6
  2  3  1  0
  3  4  1  0
  4  5  1  0
  5  6  1  0
  6  7  1  0
  7  8  1  1
  8  9  1  0
  9 10  1  0
 10 11  1  0
 11 12  1  0
 12 13  1  0
 13 14  1  0
 14 15  2  0
 15 16  1  0
 16 17  2  0
 17 18  1  0
 18 19  2  0
 11 20  1  0
 20 21  1  0
  7  2  1  0
 21  8  1  0
 19 11  1  0
 19 14  1  0
M  END
>  <ChemBL_ID>  (769) 
CHEMBL315146

>  <Compound_Key>  (769) 
4

>  <Ki>  (769) 
30.0

>  <database>  (769) 
CHEMBL

>  <Assay_ChEMBL_ID>  (769) 
CHEMBL808909

>  <Document_ChEMBL_ID>  (769) 
CHEMBL1130429

$$$$

     RDKit          2D

 24 26  0  0  0  0  0  0  0  0999 V2000
   -3.1747    2.1441    0.0000 O   0  0  0  0  0  0  0  0  0  0  0  0
   -3.6365    0.7170    0.0000 C   0  0  0  0  0  0  0  0  0  0  0  0
   -2.6315   -0.3965    0.0000 C   0  0  0  0  0  0  0  0  0  0  0  0
   -1.1646   -0.0829    0.0000 C   0  0  0  0  0  0  0  0  0  0  0  0
   -0.1596   -1.1965    0.0000 C   0  0  0  0  0  0  0  0  0  0  0  0
    1.3072   -0.8829    0.0000 N   0  0  0  0  0  0  0  0  0  0  0  0
    2.3122   -1.9964    0.0000 C   0  0  0  0  0  0  0  0  0  0  0  0
    3.7791   -1.6828    0.0000 C   0  0  0  0  0  0  0  0  0  0  0  0
    4.2409   -0.2557    0.0000 N   0  0  0  0  0  0  0  0  0  0  0  0
    5.7078    0.0579    0.0000 C   0  0  0  0  0  0  0  0  0  0  0  0
    6.7128   -1.0556    0.0000 C   0  0  0  0  0  0  0  0  0  0  0  0
    8.1796   -0.7420    0.0000 C   0  0  0  0  0  0  0  0  0  0  0  0
    8.6415    0.6851    0.0000 C   0  0  0  0  0  0  0  0  0  0  0  0
    7.6365    1.7986    0.0000 C   0  0  0  0  0  0  0  0  0  0  0  0
    6.1696    1.4850    0.0000 N   0  0  0  0  0  0  0  0  0  0  0  0
    3.2359    0.8578    0.0000 C   0  0  0  0  0  0  0  0  0  0  0  0
    1.7691    0.5443    0.0000 C   0  0  0  0  0  0  0  0  0  0  0  0
   -5.1034    0.4034    0.0000 C   0  0  0  0  0  0  0  0  0  0  0  0
   -6.1084    1.5169    0.0000 C   0  0  0  0  0  0  0  0  0  0  0  0
   -7.5752    1.2034    0.0000 C   0  0  0  0  0  0  0  0  0  0  0  0
   -8.0371   -0.2238    0.0000 C   0  0  0  0  0  0  0  0  0  0  0  0
   -9.5039   -0.5374    0.0000 F   0  0  0  0  0  0  0  0  0  0  0  0
   -7.0321   -1.3373    0.0000 C   0  0  0  0  0  0  0  0  0  0  0  0
   -5.5652   -1.0237    0.0000 C   0  0  0  0  0  0  0  0  0  0  0  0
  2  1  1  1
  2  3  1  0
  3  4  1  0
  4  5  1  0
  5  6  1  0
  6  7  1  0
  7  8  1  0
  8  9  1  0
  9 10  1  0
 10 11  2  0
 11 12  1  0
 12 13  2  0
 13 14  1  0
 14 15  2  0
  9 16  1  0
 16 17  1  0
  2 18  1  0
 18 19  2  0
 19 20  1  0
 20 21  2  0
 21 22  1  0
 21 23  1  0
 23 24  2  0
 17  6  1  0
 24 18  1  0
 15 10  1  0
M  END
>  <ChemBL_ID>  (770) 
CHEMBL339963

>  <Compound_Key>  (770) 
(S)-(-)-3b

>  <Ki>  (770) 
38.0

>  <database>  (770) 
CHEMBL

>  <Assay_ChEMBL_ID>  (770) 
CHEMBL844344

>  <Document_ChEMBL_ID>  (770) 
CHEMBL1126960

$$$$

     RDKit          2D

 27 30  0  0  0  0  0  0  0  0999 V2000
   -6.5480   -2.9993    0.0000 C   0  0  0  0  0  0  0  0  0  0  0  0
   -5.6407   -1.8047    0.0000 N   0  0  0  0  0  0  0  0  0  0  0  0
   -4.1411   -1.8366    0.0000 C   0  0  0  0  0  0  0  0  0  0  0  0
   -3.6473   -0.4202    0.0000 C   0  0  0  0  0  0  0  0  0  0  0  0
   -2.5542   -1.4474    0.0000 C   0  0  0  0  0  0  0  0  0  0  0  0
   -1.1181   -1.0143    0.0000 C   0  0  0  0  0  0  0  0  0  0  0  0
   -0.7751    0.4460    0.0000 N   0  0  0  0  0  0  0  0  0  0  0  0
    0.6610    0.8791    0.0000 C   0  0  0  0  0  0  0  0  0  0  0  0
    1.7541   -0.1481    0.0000 C   0  0  0  0  0  0  0  0  0  0  0  0
    3.1902    0.2850    0.0000 C   0  0  0  0  0  0  0  0  0  0  0  0
    4.2834   -0.7421    0.0000 C   0  0  0  0  0  0  0  0  0  0  0  0
    3.9404   -2.2024    0.0000 O   0  0  0  0  0  0  0  0  0  0  0  0
    5.7195   -0.3090    0.0000 C   0  0  0  0  0  0  0  0  0  0  0  0
    6.8126   -1.3362    0.0000 C   0  0  0  0  0  0  0  0  0  0  0  0
    8.2487   -0.9031    0.0000 C   0  0  0  0  0  0  0  0  0  0  0  0
    8.5917    0.5572    0.0000 C   0  0  0  0  0  0  0  0  0  0  0  0
   10.0278    0.9903    0.0000 F   0  0  0  0  0  0  0  0  0  0  0  0
    7.4986    1.5843    0.0000 C   0  0  0  0  0  0  0  0  0  0  0  0
    6.0625    1.1512    0.0000 C   0  0  0  0  0  0  0  0  0  0  0  0
   -1.8683    1.4732    0.0000 C   0  0  0  0  0  0  0  0  0  0  0  0
   -3.3044    1.0401    0.0000 C   0  0  0  0  0  0  0  0  0  0  0  0
   -4.8419    0.4871    0.0000 C   0  0  0  0  0  0  0  0  0  0  0  0
   -4.9669    1.9818    0.0000 C   0  0  0  0  0  0  0  0  0  0  0  0
   -6.3240    2.6209    0.0000 C   0  0  0  0  0  0  0  0  0  0  0  0
   -7.5559    1.7652    0.0000 C   0  0  0  0  0  0  0  0  0  0  0  0
   -7.4309    0.2705    0.0000 C   0  0  0  0  0  0  0  0  0  0  0  0
   -6.0738   -0.3686    0.0000 C   0  0  0  0  0  0  0  0  0  0  0  0
  1  2  1  0
  2  3  1  0
  3  4  1  0
  4  5  1  0
  5  6  1  0
  6  7  1  0
  7  8  1  0
  8  9  1  0
  9 10  1  0
 10 11  1  0
 11 12  2  0
 11 13  1  0
 13 14  2  0
 14 15  1  0
 15 16  2  0
 16 17  1  0
 16 18  1  0
 18 19  2  0
  7 20  1  0
 20 21  1  0
  4 22  1  0
 22 23  2  0
 23 24  1  0
 24 25  2  0
 25 26  1  0
 26 27  2  0
 27  2  1  0
 21  4  1  0
 27 22  1  0
 19 13  1  0
M  END
>  <ChemBL_ID>  (771) 
CHEMBL405524

>  <Compound_Key>  (771) 
24a

>  <Ki>  (771) 
60.8

>  <database>  (771) 
CHEMBL

>  <Assay_ChEMBL_ID>  (771) 
CHEMBL808910

>  <Document_ChEMBL_ID>  (771) 
CHEMBL1130429

$$$$

     RDKit          2D

 22 25  0  0  0  0  0  0  0  0999 V2000
   -4.6577   -2.7082    0.0000 C   0  0  0  0  0  0  0  0  0  0  0  0
   -3.5462   -1.7010    0.0000 N   0  0  0  0  0  0  0  0  0  0  0  0
   -2.0780   -2.0083    0.0000 C   0  0  0  0  0  0  0  0  0  0  0  0
   -1.3321   -0.7069    0.0000 C   0  0  0  0  0  0  0  0  0  0  0  0
   -0.4466   -1.9176    0.0000 C   0  0  0  0  0  0  0  0  0  0  0  0
    1.0447   -1.7561    0.0000 C   0  0  0  0  0  0  0  0  0  0  0  0
    1.6505   -0.3839    0.0000 N   0  0  0  0  0  0  0  0  0  0  0  0
    3.1418   -0.2224    0.0000 C   0  0  0  0  0  0  0  0  0  0  0  0
    4.0272   -1.4332    0.0000 C   0  0  0  0  0  0  0  0  0  0  0  0
    5.5185   -1.2717    0.0000 C   0  0  0  0  0  0  0  0  0  0  0  0
    6.1243    0.1005    0.0000 C   0  0  0  0  0  0  0  0  0  0  0  0
    5.2388    1.3113    0.0000 C   0  0  0  0  0  0  0  0  0  0  0  0
    3.7475    1.1498    0.0000 C   0  0  0  0  0  0  0  0  0  0  0  0
    2.8621    2.3605    0.0000 O   0  0  0  0  0  0  0  0  0  0  0  0
    0.7650    0.8268    0.0000 C   0  0  0  0  0  0  0  0  0  0  0  0
   -0.7263    0.6653    0.0000 C   0  0  0  0  0  0  0  0  0  0  0  0
   -2.3393    0.4047    0.0000 C   0  0  0  0  0  0  0  0  0  0  0  0
   -2.1872    1.8969    0.0000 C   0  0  0  0  0  0  0  0  0  0  0  0
   -3.4035    2.7748    0.0000 C   0  0  0  0  0  0  0  0  0  0  0  0
   -4.7719    2.1604    0.0000 C   0  0  0  0  0  0  0  0  0  0  0  0
   -4.9240    0.6681    0.0000 C   0  0  0  0  0  0  0  0  0  0  0  0
   -3.7077   -0.2098    0.0000 C   0  0  0  0  0  0  0  0  0  0  0  0
  1  2  1  0
  2  3  1  0
  3  4  1  0
  4  5  1  0
  5  6  1  0
  6  7  1  0
  8  7  1  1
  8  9  1  0
  9 10  1  0
 10 11  1  0
 11 12  1  0
 12 13  1  0
 13 14  1  6
  7 15  1  0
 15 16  1  0
  4 17  1  0
 17 18  2  0
 18 19  1  0
 19 20  2  0
 20 21  1  0
 21 22  2  0
 22  2  1  0
 16  4  1  0
 22 17  1  0
 13  8  1  0
M  END
>  <ChemBL_ID>  (772) 
CHEMBL127180

>  <Compound_Key>  (772) 
18a

>  <Ki>  (772) 
357.3

>  <database>  (772) 
CHEMBL

>  <Assay_ChEMBL_ID>  (772) 
CHEMBL808910

>  <Document_ChEMBL_ID>  (772) 
CHEMBL1130429

$$$$

     RDKit          2D

 24 27  0  0  0  0  0  0  0  0999 V2000
   -2.2689    2.1634    0.0000 O   0  0  0  0  0  0  0  0  0  0  0  0
   -2.6913    0.7241    0.0000 C   0  0  0  0  0  0  0  0  0  0  0  0
   -1.6560   -0.3613    0.0000 C   0  0  0  0  0  0  0  0  0  0  0  0
   -0.1983   -0.0075    0.0000 N   0  0  0  0  0  0  0  0  0  0  0  0
    0.8369   -1.0930    0.0000 C   0  0  0  0  0  0  0  0  0  0  0  0
    2.2946   -0.7392    0.0000 C   0  0  0  0  0  0  0  0  0  0  0  0
    2.7170    0.7001    0.0000 C   0  0  0  0  0  0  0  0  0  0  0  0
    3.2876    2.0874    0.0000 C   0  0  0  0  0  0  0  0  0  0  0  0
    4.7832    1.9735    0.0000 C   0  0  0  0  0  0  0  0  0  0  0  0
    5.1370    0.5158    0.0000 C   0  0  0  0  0  0  0  0  0  0  0  0
    6.4571   -0.1966    0.0000 C   0  0  0  0  0  0  0  0  0  0  0  0
    6.5001   -1.6960    0.0000 C   0  0  0  0  0  0  0  0  0  0  0  0
    5.2231   -2.4830    0.0000 C   0  0  0  0  0  0  0  0  0  0  0  0
    3.9031   -1.7706    0.0000 C   0  0  0  0  0  0  0  0  0  0  0  0
    3.8601   -0.2712    0.0000 C   0  0  0  0  0  0  0  0  0  0  0  0
    1.6817    1.7856    0.0000 C   0  0  0  0  0  0  0  0  0  0  0  0
    0.2241    1.4318    0.0000 C   0  0  0  0  0  0  0  0  0  0  0  0
   -4.1489    0.3703    0.0000 C   0  0  0  0  0  0  0  0  0  0  0  0
   -5.1842    1.4558    0.0000 C   0  0  0  0  0  0  0  0  0  0  0  0
   -6.6419    1.1019    0.0000 C   0  0  0  0  0  0  0  0  0  0  0  0
   -7.0643   -0.3374    0.0000 C   0  0  0  0  0  0  0  0  0  0  0  0
   -6.0290   -1.4228    0.0000 C   0  0  0  0  0  0  0  0  0  0  0  0
   -6.4514   -2.8621    0.0000 Br  0  0  0  0  0  0  0  0  0  0  0  0
   -4.5714   -1.0690    0.0000 C   0  0  0  0  0  0  0  0  0  0  0  0
  2  1  1  1
  2  3  1  0
  3  4  1  0
  4  5  1  0
  5  6  1  0
  6  7  1  0
  7  8  1  0
  8  9  1  0
  9 10  1  0
 10 11  2  0
 11 12  1  0
 12 13  2  0
 13 14  1  0
 14 15  2  0
  7 16  1  0
 16 17  1  0
  2 18  1  0
 18 19  2  0
 19 20  1  0
 20 21  2  0
 21 22  1  0
 22 23  1  0
 22 24  2  0
 17  4  1  0
 24 18  1  0
 15  7  1  0
 15 10  1  0
M  END
>  <ChemBL_ID>  (773) 
CHEMBL126019

>  <Compound_Key>  (773) 
23b

>  <Ki>  (773) 
12.7

>  <database>  (773) 
CHEMBL

>  <Assay_ChEMBL_ID>  (773) 
CHEMBL808910

>  <Document_ChEMBL_ID>  (773) 
CHEMBL1130429

$$$$

     RDKit          2D

 25 29  0  0  0  0  0  0  0  0999 V2000
   -1.5438   -2.5017    0.0000 O   0  0  0  0  0  0  0  0  0  0  0  0
   -0.5887   -1.3451    0.0000 C   0  0  0  0  0  0  0  0  0  0  0  0
    0.8905   -1.5939    0.0000 C   0  0  0  0  0  0  0  0  0  0  0  0
    1.8456   -0.4373    0.0000 C   0  0  0  0  0  0  0  0  0  0  0  0
    3.3248   -0.6861    0.0000 C   0  0  0  0  0  0  0  0  0  0  0  0
    4.2799    0.4705    0.0000 C   0  0  0  0  0  0  0  0  0  0  0  0
    3.7558    1.8759    0.0000 C   0  0  0  0  0  0  0  0  0  0  0  0
    2.2766    2.1248    0.0000 C   0  0  0  0  0  0  0  0  0  0  0  0
    1.3215    0.9681    0.0000 C   0  0  0  0  0  0  0  0  0  0  0  0
   -0.1577    1.2170    0.0000 C   0  0  0  0  0  0  0  0  0  0  0  0
   -1.1128    0.0603    0.0000 C   0  0  0  0  0  0  0  0  0  0  0  0
   -2.5920    0.3092    0.0000 N   0  0  0  0  0  0  0  0  0  0  0  0
   -3.2602    1.6521    0.0000 C   0  0  0  0  0  0  0  0  0  0  0  0
   -4.7439    1.4317    0.0000 C   0  0  0  0  0  0  0  0  0  0  0  0
   -4.9927   -0.0475    0.0000 C   0  0  0  0  0  0  0  0  0  0  0  0
   -3.6628   -0.7413    0.0000 C   0  0  0  0  0  0  0  0  0  0  0  0
   -2.2119   -1.1588    0.0000 C   0  0  0  0  0  0  0  0  0  0  0  0
   -1.2568   -0.0021    0.0000 C   0  0  0  0  0  0  0  0  0  0  0  0
    0.2224   -0.2510    0.0000 C   0  0  0  0  0  0  0  0  0  0  0  0
    0.7465   -1.6564    0.0000 C   0  0  0  0  0  0  0  0  0  0  0  0
    2.2257   -1.9053    0.0000 C   0  0  0  0  0  0  0  0  0  0  0  0
    3.1808   -0.7486    0.0000 C   0  0  0  0  0  0  0  0  0  0  0  0
    2.6567    0.6568    0.0000 C   0  0  0  0  0  0  0  0  0  0  0  0
    1.1775    0.9056    0.0000 C   0  0  0  0  0  0  0  0  0  0  0  0
   -1.7810    1.4033    0.0000 C   0  0  0  0  0  0  0  0  0  0  0  0
  2  1  1  6
  2  3  1  0
  3  4  1  0
  4  5  2  0
  5  6  1  0
  6  7  2  0
  7  8  1  0
  8  9  2  0
  9 10  1  0
 10 11  1  0
 11 12  1  1
 12 13  1  0
 13 14  1  0
 14 15  1  0
 15 16  1  0
 16 17  1  0
 17 18  1  0
 18 19  1  0
 19 20  2  0
 20 21  1  0
 21 22  2  0
 22 23  1  0
 23 24  2  0
 18 25  1  0
 11  2  1  0
 16 12  1  0
 24 19  1  0
  9  4  1  0
 25 13  1  0
M  END
>  <ChemBL_ID>  (774) 
CHEMBL125795

>  <Compound_Key>  (774) 
10b

>  <Ki>  (774) 
175.0

>  <database>  (774) 
CHEMBL

>  <Assay_ChEMBL_ID>  (774) 
CHEMBL808910

>  <Document_ChEMBL_ID>  (774) 
CHEMBL1130429

$$$$

     RDKit          2D

 29 33  0  0  0  0  0  0  0  0999 V2000
   -3.9324    0.7970    0.0000 O   0  0  0  0  0  0  0  0  0  0  0  0
   -2.4404    0.9516    0.0000 C   0  0  0  0  0  0  0  0  0  0  0  0
   -1.8283    2.3211    0.0000 C   0  0  0  0  0  0  0  0  0  0  0  0
   -0.3363    2.4757    0.0000 C   0  0  0  0  0  0  0  0  0  0  0  0
    0.5436    1.2609    0.0000 N   0  0  0  0  0  0  0  0  0  0  0  0
    2.0356    1.4155    0.0000 C   0  0  0  0  0  0  0  0  0  0  0  0
    2.9155    0.2007    0.0000 C   0  0  0  0  0  0  0  0  0  0  0  0
    2.3034   -1.1687    0.0000 C   0  0  0  0  0  0  0  0  0  0  0  0
    3.1833   -2.3836    0.0000 C   0  0  0  0  0  0  0  0  0  0  0  0
    4.6753   -2.2289    0.0000 C   0  0  0  0  0  0  0  0  0  0  0  0
    5.2874   -0.8595    0.0000 C   0  0  0  0  0  0  0  0  0  0  0  0
    6.7794   -0.7049    0.0000 I   0  0  0  0  0  0  0  0  0  0  0  0
    4.4075    0.3553    0.0000 C   0  0  0  0  0  0  0  0  0  0  0  0
   -0.0685   -0.1086    0.0000 C   0  0  0  0  0  0  0  0  0  0  0  0
   -1.5605   -0.2632    0.0000 C   0  0  0  0  0  0  0  0  0  0  0  0
   -2.1726   -1.6326    0.0000 N   0  0  0  0  0  0  0  0  0  0  0  0
   -1.4245   -2.9327    0.0000 C   0  0  0  0  0  0  0  0  0  0  0  0
   -2.4298   -4.0460    0.0000 C   0  0  0  0  0  0  0  0  0  0  0  0
   -3.7993   -3.4339    0.0000 C   0  0  0  0  0  0  0  0  0  0  0  0
   -3.6403   -1.9423    0.0000 C   0  0  0  0  0  0  0  0  0  0  0  0
   -3.1843   -0.5031    0.0000 C   0  0  0  0  0  0  0  0  0  0  0  0
   -1.6923   -0.3485    0.0000 C   0  0  0  0  0  0  0  0  0  0  0  0
   -1.0802    1.0209    0.0000 C   0  0  0  0  0  0  0  0  0  0  0  0
    0.4118    1.1755    0.0000 C   0  0  0  0  0  0  0  0  0  0  0  0
    1.0239    2.5450    0.0000 C   0  0  0  0  0  0  0  0  0  0  0  0
    0.1440    3.7598    0.0000 C   0  0  0  0  0  0  0  0  0  0  0  0
   -1.3480    3.6052    0.0000 C   0  0  0  0  0  0  0  0  0  0  0  0
   -1.9601    2.2357    0.0000 C   0  0  0  0  0  0  0  0  0  0  0  0
   -0.8124   -1.5633    0.0000 C   0  0  0  0  0  0  0  0  0  0  0  0
  2  1  1  1
  2  3  1  0
  3  4  1  0
  4  5  1  0
  5  6  1  0
  6  7  1  0
  7  8  2  0
  8  9  1  0
  9 10  2  0
 10 11  1  0
 11 12  1  0
 11 13  2  0
  5 14  1  0
 14 15  1  0
 15 16  1  6
 16 17  1  0
 17 18  1  0
 18 19  1  0
 19 20  1  0
 20 21  1  0
 21 22  1  0
 22 23  1  0
 23 24  2  0
 24 25  1  0
 25 26  2  0
 26 27  1  0
 27 28  2  0
 22 29  1  0
 15  2  1  0
 20 16  1  0
 28 23  1  0
 13  7  1  0
 29 17  1  0
M  END
>  <ChemBL_ID>  (775) 
CHEMBL126762

>  <Compound_Key>  (775) 
10d

>  <Ki>  (775) 
275.1

>  <database>  (775) 
CHEMBL

>  <Assay_ChEMBL_ID>  (775) 
CHEMBL808910

>  <Document_ChEMBL_ID>  (775) 
CHEMBL1130429

$$$$

     RDKit          2D

 21 24  0  0  0  0  0  0  0  0999 V2000
   -0.5070    2.4356    0.0000 O   0  0  0  0  0  0  0  0  0  0  0  0
    0.2484    1.1397    0.0000 C   0  0  0  0  0  0  0  0  0  0  0  0
    1.7484    1.1459    0.0000 C   0  0  0  0  0  0  0  0  0  0  0  0
    2.5037   -0.1500    0.0000 C   0  0  0  0  0  0  0  0  0  0  0  0
    1.7591   -1.4522    0.0000 C   0  0  0  0  0  0  0  0  0  0  0  0
    0.2591   -1.4583    0.0000 C   0  0  0  0  0  0  0  0  0  0  0  0
   -0.4962   -0.1624    0.0000 C   0  0  0  0  0  0  0  0  0  0  0  0
   -1.9962   -0.1686    0.0000 N   0  0  0  0  0  0  0  0  0  0  0  0
   -2.8729   -1.3858    0.0000 C   0  0  0  0  0  0  0  0  0  0  0  0
   -4.3014   -0.9281    0.0000 C   0  0  0  0  0  0  0  0  0  0  0  0
   -4.3076    0.5719    0.0000 C   0  0  0  0  0  0  0  0  0  0  0  0
   -2.8829    1.0413    0.0000 C   0  0  0  0  0  0  0  0  0  0  0  0
   -1.3836    1.2185    0.0000 C   0  0  0  0  0  0  0  0  0  0  0  0
   -0.6283   -0.0774    0.0000 C   0  0  0  0  0  0  0  0  0  0  0  0
    0.8717   -0.0713    0.0000 C   0  0  0  0  0  0  0  0  0  0  0  0
    1.6271   -1.3672    0.0000 C   0  0  0  0  0  0  0  0  0  0  0  0
    3.1271   -1.3610    0.0000 C   0  0  0  0  0  0  0  0  0  0  0  0
    3.8717   -0.0589    0.0000 C   0  0  0  0  0  0  0  0  0  0  0  0
    3.1163    1.2371    0.0000 C   0  0  0  0  0  0  0  0  0  0  0  0
    1.6163    1.2309    0.0000 C   0  0  0  0  0  0  0  0  0  0  0  0
   -1.3729   -1.3796    0.0000 C   0  0  0  0  0  0  0  0  0  0  0  0
  2  1  1  1
  2  3  1  0
  3  4  1  0
  4  5  1  0
  5  6  1  0
  6  7  1  0
  7  8  1  6
  8  9  1  0
  9 10  1  0
 10 11  1  0
 11 12  1  0
 12 13  1  0
 13 14  1  0
 14 15  1  0
 15 16  2  0
 16 17  1  0
 17 18  2  0
 18 19  1  0
 19 20  2  0
 14 21  1  0
  7  2  1  0
 12  8  1  0
 20 15  1  0
 21  9  1  0
M  END
>  <ChemBL_ID>  (776) 
CHEMBL338411

>  <Compound_Key>  (776) 
10a

>  <Ki>  (776) 
118.0

>  <database>  (776) 
CHEMBL

>  <Assay_ChEMBL_ID>  (776) 
CHEMBL808910

>  <Document_ChEMBL_ID>  (776) 
CHEMBL1130429

$$$$

     RDKit          2D

 26 29  0  0  0  0  0  0  0  0999 V2000
    0.9711   -2.7127    0.0000 O   0  0  0  0  0  0  0  0  0  0  0  0
    1.3142   -1.2524    0.0000 C   0  0  0  0  0  0  0  0  0  0  0  0
    0.2211   -0.2252    0.0000 C   0  0  0  0  0  0  0  0  0  0  0  0
   -1.2150   -0.6581    0.0000 C   0  0  0  0  0  0  0  0  0  0  0  0
   -2.3081    0.3691    0.0000 C   0  0  0  0  0  0  0  0  0  0  0  0
   -3.7442   -0.0638    0.0000 N   0  0  0  0  0  0  0  0  0  0  0  0
   -4.2381   -1.4802    0.0000 C   0  0  0  0  0  0  0  0  0  0  0  0
   -5.7377   -1.4482    0.0000 C   0  0  0  0  0  0  0  0  0  0  0  0
   -6.1707   -0.0120    0.0000 C   0  0  0  0  0  0  0  0  0  0  0  0
   -4.9386    0.8435    0.0000 C   0  0  0  0  0  0  0  0  0  0  0  0
   -3.5519    1.4403    0.0000 C   0  0  0  0  0  0  0  0  0  0  0  0
   -2.4588    0.4130    0.0000 C   0  0  0  0  0  0  0  0  0  0  0  0
   -1.0227    0.8460    0.0000 C   0  0  0  0  0  0  0  0  0  0  0  0
    0.0704   -0.1813    0.0000 C   0  0  0  0  0  0  0  0  0  0  0  0
    1.5065    0.2517    0.0000 C   0  0  0  0  0  0  0  0  0  0  0  0
    1.8497    1.7119    0.0000 C   0  0  0  0  0  0  0  0  0  0  0  0
    0.7566    2.7392    0.0000 C   0  0  0  0  0  0  0  0  0  0  0  0
   -0.6795    2.3062    0.0000 C   0  0  0  0  0  0  0  0  0  0  0  0
   -2.8019   -1.0472    0.0000 C   0  0  0  0  0  0  0  0  0  0  0  0
    2.7503   -0.8195    0.0000 C   0  0  0  0  0  0  0  0  0  0  0  0
    3.8434   -1.8467    0.0000 C   0  0  0  0  0  0  0  0  0  0  0  0
    5.2795   -1.4138    0.0000 C   0  0  0  0  0  0  0  0  0  0  0  0
    5.6226    0.0465    0.0000 C   0  0  0  0  0  0  0  0  0  0  0  0
    7.0588    0.4794    0.0000 F   0  0  0  0  0  0  0  0  0  0  0  0
    4.5296    1.0737    0.0000 C   0  0  0  0  0  0  0  0  0  0  0  0
    3.0934    0.6408    0.0000 C   0  0  0  0  0  0  0  0  0  0  0  0
  1  2  2  0
  2  3  1  0
  3  4  1  0
  4  5  1  0
  5  6  1  0
  6  7  1  0
  7  8  1  0
  8  9  1  0
  9 10  1  0
 10 11  1  0
 11 12  1  0
 12 13  1  0
 13 14  2  0
 14 15  1  0
 15 16  2  0
 16 17  1  0
 17 18  2  0
 12 19  1  0
  2 20  1  0
 20 21  2  0
 21 22  1  0
 22 23  2  0
 23 24  1  0
 23 25  1  0
 25 26  2  0
 10  6  1  0
 18 13  1  0
 26 20  1  0
 19  7  1  0
M  END
>  <ChemBL_ID>  (777) 
CHEMBL340816

>  <Compound_Key>  (777) 
`12

>  <Ki>  (777) 
15.36

>  <database>  (777) 
CHEMBL

>  <Assay_ChEMBL_ID>  (777) 
CHEMBL808910

>  <Document_ChEMBL_ID>  (777) 
CHEMBL1130429

$$$$

     RDKit          2D

 24 27  0  0  0  0  0  0  0  0999 V2000
   -1.0254   -2.2422    0.0000 O   0  0  0  0  0  0  0  0  0  0  0  0
   -0.4517   -0.8563    0.0000 C   0  0  0  0  0  0  0  0  0  0  0  0
   -1.3651    0.3336    0.0000 C   0  0  0  0  0  0  0  0  0  0  0  0
   -2.8523    0.1374    0.0000 N   0  0  0  0  0  0  0  0  0  0  0  0
   -3.5677   -1.1810    0.0000 C   0  0  0  0  0  0  0  0  0  0  0  0
   -5.0426   -0.9080    0.0000 C   0  0  0  0  0  0  0  0  0  0  0  0
   -5.2388    0.5791    0.0000 C   0  0  0  0  0  0  0  0  0  0  0  0
   -3.8850    1.2252    0.0000 C   0  0  0  0  0  0  0  0  0  0  0  0
   -2.4203    1.5909    0.0000 C   0  0  0  0  0  0  0  0  0  0  0  0
   -1.5069    0.4011    0.0000 C   0  0  0  0  0  0  0  0  0  0  0  0
   -0.0197    0.5973    0.0000 C   0  0  0  0  0  0  0  0  0  0  0  0
    0.8937   -0.5926    0.0000 C   0  0  0  0  0  0  0  0  0  0  0  0
    2.3808   -0.3964    0.0000 C   0  0  0  0  0  0  0  0  0  0  0  0
    2.9545    0.9896    0.0000 C   0  0  0  0  0  0  0  0  0  0  0  0
    2.0411    2.1794    0.0000 C   0  0  0  0  0  0  0  0  0  0  0  0
    0.5540    1.9832    0.0000 C   0  0  0  0  0  0  0  0  0  0  0  0
   -2.0806   -0.9848    0.0000 C   0  0  0  0  0  0  0  0  0  0  0  0
    1.0354   -0.6601    0.0000 C   0  0  0  0  0  0  0  0  0  0  0  0
    1.9488   -1.8499    0.0000 C   0  0  0  0  0  0  0  0  0  0  0  0
    3.4360   -1.6538    0.0000 C   0  0  0  0  0  0  0  0  0  0  0  0
    4.0097   -0.2678    0.0000 C   0  0  0  0  0  0  0  0  0  0  0  0
    5.4968   -0.0717    0.0000 F   0  0  0  0  0  0  0  0  0  0  0  0
    3.0962    0.9220    0.0000 C   0  0  0  0  0  0  0  0  0  0  0  0
    1.6091    0.7258    0.0000 C   0  0  0  0  0  0  0  0  0  0  0  0
  1  2  2  0
  2  3  1  0
  3  4  1  0
  4  5  1  0
  5  6  1  0
  6  7  1  0
  7  8  1  0
  8  9  1  0
  9 10  1  0
 10 11  1  0
 11 12  2  0
 12 13  1  0
 13 14  2  0
 14 15  1  0
 15 16  2  0
 10 17  1  0
  2 18  1  0
 18 19  2  0
 19 20  1  0
 20 21  2  0
 21 22  1  0
 21 23  1  0
 23 24  2  0
  8  4  1  0
 16 11  1  0
 24 18  1  0
 17  5  1  0
M  END
>  <ChemBL_ID>  (778) 
CHEMBL339712

>  <Compound_Key>  (778) 
11

>  <Ki>  (778) 
73.33

>  <database>  (778) 
CHEMBL

>  <Assay_ChEMBL_ID>  (778) 
CHEMBL808910

>  <Document_ChEMBL_ID>  (778) 
CHEMBL1130429

$$$$

     RDKit          2D

 29 33  0  0  0  0  0  0  0  0999 V2000
   -3.9816    0.2749    0.0000 O   0  0  0  0  0  0  0  0  0  0  0  0
   -2.5318    0.6599    0.0000 C   0  0  0  0  0  0  0  0  0  0  0  0
   -2.1404    2.1079    0.0000 C   0  0  0  0  0  0  0  0  0  0  0  0
   -0.6907    2.4930    0.0000 C   0  0  0  0  0  0  0  0  0  0  0  0
    0.3676    1.4300    0.0000 N   0  0  0  0  0  0  0  0  0  0  0  0
    1.8174    1.8150    0.0000 C   0  0  0  0  0  0  0  0  0  0  0  0
    2.8757    0.7520    0.0000 C   0  0  0  0  0  0  0  0  0  0  0  0
    2.4843   -0.6960    0.0000 C   0  0  0  0  0  0  0  0  0  0  0  0
    3.5426   -1.7590    0.0000 C   0  0  0  0  0  0  0  0  0  0  0  0
    4.9923   -1.3740    0.0000 C   0  0  0  0  0  0  0  0  0  0  0  0
    6.0507   -2.4369    0.0000 F   0  0  0  0  0  0  0  0  0  0  0  0
    5.3838    0.0741    0.0000 C   0  0  0  0  0  0  0  0  0  0  0  0
    4.3254    1.1371    0.0000 C   0  0  0  0  0  0  0  0  0  0  0  0
   -0.0238   -0.0180    0.0000 C   0  0  0  0  0  0  0  0  0  0  0  0
   -1.4735   -0.4031    0.0000 C   0  0  0  0  0  0  0  0  0  0  0  0
   -1.8649   -1.8511    0.0000 N   0  0  0  0  0  0  0  0  0  0  0  0
   -0.9235   -3.0189    0.0000 C   0  0  0  0  0  0  0  0  0  0  0  0
   -1.7433   -4.2751    0.0000 C   0  0  0  0  0  0  0  0  0  0  0  0
   -3.1913   -3.8837    0.0000 C   0  0  0  0  0  0  0  0  0  0  0  0
   -3.2665   -2.3856    0.0000 C   0  0  0  0  0  0  0  0  0  0  0  0
   -3.0402   -0.8929    0.0000 C   0  0  0  0  0  0  0  0  0  0  0  0
   -1.5904   -0.5079    0.0000 C   0  0  0  0  0  0  0  0  0  0  0  0
   -1.1990    0.9402    0.0000 C   0  0  0  0  0  0  0  0  0  0  0  0
    0.2507    1.3252    0.0000 C   0  0  0  0  0  0  0  0  0  0  0  0
    0.6421    2.7732    0.0000 C   0  0  0  0  0  0  0  0  0  0  0  0
   -0.4162    3.8362    0.0000 C   0  0  0  0  0  0  0  0  0  0  0  0
   -1.8659    3.4512    0.0000 C   0  0  0  0  0  0  0  0  0  0  0  0
   -2.2573    2.0031    0.0000 C   0  0  0  0  0  0  0  0  0  0  0  0
   -0.5321   -1.5709    0.0000 C   0  0  0  0  0  0  0  0  0  0  0  0
  2  1  1  1
  2  3  1  0
  3  4  1  0
  4  5  1  0
  5  6  1  0
  6  7  1  0
  7  8  2  0
  8  9  1  0
  9 10  2  0
 10 11  1  0
 10 12  1  0
 12 13  2  0
  5 14  1  0
 14 15  1  0
 15 16  1  6
 16 17  1  0
 17 18  1  0
 18 19  1  0
 19 20  1  0
 20 21  1  0
 21 22  1  0
 22 23  1  0
 23 24  2  0
 24 25  1  0
 25 26  2  0
 26 27  1  0
 27 28  2  0
 22 29  1  0
 15  2  1  0
 20 16  1  0
 28 23  1  0
 13  7  1  0
 29 17  1  0
M  END
>  <ChemBL_ID>  (779) 
CHEMBL127790

>  <Compound_Key>  (779) 
10c

>  <Ki>  (779) 
260.1

>  <database>  (779) 
CHEMBL

>  <Assay_ChEMBL_ID>  (779) 
CHEMBL808910

>  <Document_ChEMBL_ID>  (779) 
CHEMBL1130429

$$$$

     RDKit          2D

 25 28  0  0  0  0  0  0  0  0999 V2000
   -0.3863   -1.7352    0.0000 O   0  0  0  0  0  0  0  0  0  0  0  0
   -0.4870   -0.2386    0.0000 C   0  0  0  0  0  0  0  0  0  0  0  0
    0.7587    0.5969    0.0000 C   0  0  0  0  0  0  0  0  0  0  0  0
    2.1052   -0.0641    0.0000 C   0  0  0  0  0  0  0  0  0  0  0  0
    2.2059   -1.5607    0.0000 C   0  0  0  0  0  0  0  0  0  0  0  0
    3.5524   -2.2218    0.0000 C   0  0  0  0  0  0  0  0  0  0  0  0
    4.7981   -1.3863    0.0000 C   0  0  0  0  0  0  0  0  0  0  0  0
    6.1446   -2.0473    0.0000 Br  0  0  0  0  0  0  0  0  0  0  0  0
    4.6974    0.1104    0.0000 C   0  0  0  0  0  0  0  0  0  0  0  0
    3.3509    0.7714    0.0000 C   0  0  0  0  0  0  0  0  0  0  0  0
   -1.8335    0.4225    0.0000 C   0  0  0  0  0  0  0  0  0  0  0  0
   -3.0793   -0.4131    0.0000 N   0  0  0  0  0  0  0  0  0  0  0  0
   -3.1355   -1.9120    0.0000 C   0  0  0  0  0  0  0  0  0  0  0  0
   -4.5785   -2.3217    0.0000 C   0  0  0  0  0  0  0  0  0  0  0  0
   -5.4140   -1.0760    0.0000 C   0  0  0  0  0  0  0  0  0  0  0  0
   -4.4875    0.1036    0.0000 C   0  0  0  0  0  0  0  0  0  0  0  0
   -3.3370    1.0812    0.0000 C   0  0  0  0  0  0  0  0  0  0  0  0
   -1.9905    0.4201    0.0000 C   0  0  0  0  0  0  0  0  0  0  0  0
   -0.7448    1.2557    0.0000 C   0  0  0  0  0  0  0  0  0  0  0  0
    0.6017    0.5946    0.0000 C   0  0  0  0  0  0  0  0  0  0  0  0
    1.8474    1.4302    0.0000 C   0  0  0  0  0  0  0  0  0  0  0  0
    1.7467    2.9268    0.0000 C   0  0  0  0  0  0  0  0  0  0  0  0
    0.4002    3.5878    0.0000 C   0  0  0  0  0  0  0  0  0  0  0  0
   -0.8455    2.7523    0.0000 C   0  0  0  0  0  0  0  0  0  0  0  0
   -1.8898   -1.0765    0.0000 C   0  0  0  0  0  0  0  0  0  0  0  0
  1  2  1  0
  2  3  1  0
  3  4  1  0
  4  5  2  0
  5  6  1  0
  6  7  2  0
  7  8  1  0
  7  9  1  0
  9 10  2  0
  2 11  1  0
 11 12  1  0
 12 13  1  0
 13 14  1  0
 14 15  1  0
 15 16  1  0
 16 17  1  0
 17 18  1  0
 18 19  1  0
 19 20  2  0
 20 21  1  0
 21 22  2  0
 22 23  1  0
 23 24  2  0
 18 25  1  0
 10  4  1  0
 16 12  1  0
 24 19  1  0
 25 13  1  0
M  END
>  <ChemBL_ID>  (780) 
CHEMBL339863

>  <Compound_Key>  (780) 
10e

>  <Ki>  (780) 
4.95

>  <database>  (780) 
CHEMBL

>  <Assay_ChEMBL_ID>  (780) 
CHEMBL808910

>  <Document_ChEMBL_ID>  (780) 
CHEMBL1130429

$$$$

     RDKit          2D

 25 28  0  0  0  0  0  0  0  0999 V2000
   -0.8644   -2.2143    0.0000 O   0  0  0  0  0  0  0  0  0  0  0  0
   -0.3137   -0.8191    0.0000 C   0  0  0  0  0  0  0  0  0  0  0  0
   -1.2468    0.3555    0.0000 C   0  0  0  0  0  0  0  0  0  0  0  0
   -2.7304    0.1347    0.0000 N   0  0  0  0  0  0  0  0  0  0  0  0
   -3.4239   -1.1954    0.0000 C   0  0  0  0  0  0  0  0  0  0  0  0
   -4.9032   -0.9469    0.0000 C   0  0  0  0  0  0  0  0  0  0  0  0
   -5.1239    0.5368    0.0000 C   0  0  0  0  0  0  0  0  0  0  0  0
   -3.7811    1.2052    0.0000 C   0  0  0  0  0  0  0  0  0  0  0  0
   -2.3226    1.5952    0.0000 C   0  0  0  0  0  0  0  0  0  0  0  0
   -1.3896    0.4207    0.0000 C   0  0  0  0  0  0  0  0  0  0  0  0
    0.0941    0.6414    0.0000 C   0  0  0  0  0  0  0  0  0  0  0  0
    1.0271   -0.5331    0.0000 C   0  0  0  0  0  0  0  0  0  0  0  0
    2.5108   -0.3123    0.0000 C   0  0  0  0  0  0  0  0  0  0  0  0
    3.0614    1.0829    0.0000 C   0  0  0  0  0  0  0  0  0  0  0  0
    2.1284    2.2575    0.0000 C   0  0  0  0  0  0  0  0  0  0  0  0
    0.6447    2.0367    0.0000 C   0  0  0  0  0  0  0  0  0  0  0  0
   -1.9402   -0.9746    0.0000 C   0  0  0  0  0  0  0  0  0  0  0  0
    1.1699   -0.5983    0.0000 C   0  0  0  0  0  0  0  0  0  0  0  0
    2.1029   -1.7728    0.0000 C   0  0  0  0  0  0  0  0  0  0  0  0
    1.5523   -3.1681    0.0000 Cl  0  0  0  0  0  0  0  0  0  0  0  0
    3.5866   -1.5520    0.0000 C   0  0  0  0  0  0  0  0  0  0  0  0
    4.1373   -0.1568    0.0000 C   0  0  0  0  0  0  0  0  0  0  0  0
    3.2042    1.0177    0.0000 C   0  0  0  0  0  0  0  0  0  0  0  0
    1.7206    0.7970    0.0000 C   0  0  0  0  0  0  0  0  0  0  0  0
    1.0995    2.1624    0.0000 Cl  0  0  0  0  0  0  0  0  0  0  0  0
  1  2  1  0
  2  3  1  0
  3  4  1  0
  4  5  1  0
  5  6  1  0
  6  7  1  0
  7  8  1  0
  8  9  1  0
  9 10  1  0
 10 11  1  0
 11 12  2  0
 12 13  1  0
 13 14  2  0
 14 15  1  0
 15 16  2  0
 10 17  1  0
  2 18  1  0
 18 19  2  0
 19 20  1  0
 19 21  1  0
 21 22  2  0
 22 23  1  0
 23 24  2  0
 24 25  1  0
  8  4  1  0
 16 11  1  0
 24 18  1  0
 17  5  1  0
M  END
>  <ChemBL_ID>  (781) 
CHEMBL338469

>  <Compound_Key>  (781) 
10j

>  <Ki>  (781) 
15.87

>  <database>  (781) 
CHEMBL

>  <Assay_ChEMBL_ID>  (781) 
CHEMBL808910

>  <Document_ChEMBL_ID>  (781) 
CHEMBL1130429

$$$$

     RDKit          2D

 24 27  0  0  0  0  0  0  0  0999 V2000
   -1.0254   -2.2422    0.0000 O   0  0  0  0  0  0  0  0  0  0  0  0
   -0.4517   -0.8563    0.0000 C   0  0  0  0  0  0  0  0  0  0  0  0
   -1.3651    0.3336    0.0000 C   0  0  0  0  0  0  0  0  0  0  0  0
   -2.8523    0.1374    0.0000 N   0  0  0  0  0  0  0  0  0  0  0  0
   -3.5677   -1.1810    0.0000 C   0  0  0  0  0  0  0  0  0  0  0  0
   -5.0426   -0.9080    0.0000 C   0  0  0  0  0  0  0  0  0  0  0  0
   -5.2388    0.5791    0.0000 C   0  0  0  0  0  0  0  0  0  0  0  0
   -3.8850    1.2252    0.0000 C   0  0  0  0  0  0  0  0  0  0  0  0
   -2.4203    1.5909    0.0000 C   0  0  0  0  0  0  0  0  0  0  0  0
   -1.5069    0.4011    0.0000 C   0  0  0  0  0  0  0  0  0  0  0  0
   -0.0197    0.5973    0.0000 C   0  0  0  0  0  0  0  0  0  0  0  0
    0.8937   -0.5926    0.0000 C   0  0  0  0  0  0  0  0  0  0  0  0
    2.3808   -0.3964    0.0000 C   0  0  0  0  0  0  0  0  0  0  0  0
    2.9545    0.9896    0.0000 C   0  0  0  0  0  0  0  0  0  0  0  0
    2.0411    2.1794    0.0000 C   0  0  0  0  0  0  0  0  0  0  0  0
    0.5540    1.9832    0.0000 C   0  0  0  0  0  0  0  0  0  0  0  0
   -2.0806   -0.9848    0.0000 C   0  0  0  0  0  0  0  0  0  0  0  0
    1.0354   -0.6601    0.0000 C   0  0  0  0  0  0  0  0  0  0  0  0
    1.9488   -1.8499    0.0000 C   0  0  0  0  0  0  0  0  0  0  0  0
    3.4360   -1.6538    0.0000 C   0  0  0  0  0  0  0  0  0  0  0  0
    4.0097   -0.2678    0.0000 C   0  0  0  0  0  0  0  0  0  0  0  0
    5.4968   -0.0717    0.0000 Br  0  0  0  0  0  0  0  0  0  0  0  0
    3.0962    0.9220    0.0000 C   0  0  0  0  0  0  0  0  0  0  0  0
    1.6091    0.7258    0.0000 C   0  0  0  0  0  0  0  0  0  0  0  0
  1  2  1  0
  2  3  1  0
  3  4  1  0
  4  5  1  0
  5  6  1  0
  6  7  1  0
  7  8  1  0
  8  9  1  0
  9 10  1  0
 10 11  1  0
 11 12  2  0
 12 13  1  0
 13 14  2  0
 14 15  1  0
 15 16  2  0
 10 17  1  0
  2 18  1  0
 18 19  2  0
 19 20  1  0
 20 21  2  0
 21 22  1  0
 21 23  1  0
 23 24  2  0
  8  4  1  0
 16 11  1  0
 24 18  1  0
 17  5  1  0
M  END
>  <ChemBL_ID>  (782) 
CHEMBL339281

>  <Compound_Key>  (782) 
10i

>  <Ki>  (782) 
11.28

>  <database>  (782) 
CHEMBL

>  <Assay_ChEMBL_ID>  (782) 
CHEMBL808910

>  <Document_ChEMBL_ID>  (782) 
CHEMBL1130429

$$$$

     RDKit          2D

 25 28  0  0  0  0  0  0  0  0999 V2000
   -1.2791   -2.2777    0.0000 O   0  0  0  0  0  0  0  0  0  0  0  0
   -0.6418   -0.9198    0.0000 C   0  0  0  0  0  0  0  0  0  0  0  0
   -1.4991    0.3111    0.0000 C   0  0  0  0  0  0  0  0  0  0  0  0
   -2.9937    0.1841    0.0000 N   0  0  0  0  0  0  0  0  0  0  0  0
   -3.7695   -1.0998    0.0000 C   0  0  0  0  0  0  0  0  0  0  0  0
   -5.2302   -0.7587    0.0000 C   0  0  0  0  0  0  0  0  0  0  0  0
   -5.3572    0.7359    0.0000 C   0  0  0  0  0  0  0  0  0  0  0  0
   -3.9750    1.3186    0.0000 C   0  0  0  0  0  0  0  0  0  0  0  0
   -2.4949    1.6160    0.0000 C   0  0  0  0  0  0  0  0  0  0  0  0
   -1.6376    0.3851    0.0000 C   0  0  0  0  0  0  0  0  0  0  0  0
   -0.1430    0.5121    0.0000 C   0  0  0  0  0  0  0  0  0  0  0  0
    0.7143   -0.7188    0.0000 C   0  0  0  0  0  0  0  0  0  0  0  0
    2.2090   -0.5918    0.0000 C   0  0  0  0  0  0  0  0  0  0  0  0
    2.8463    0.7661    0.0000 C   0  0  0  0  0  0  0  0  0  0  0  0
    1.9890    1.9970    0.0000 C   0  0  0  0  0  0  0  0  0  0  0  0
    0.4944    1.8700    0.0000 C   0  0  0  0  0  0  0  0  0  0  0  0
   -2.2749   -0.9728    0.0000 C   0  0  0  0  0  0  0  0  0  0  0  0
    0.8528   -0.7928    0.0000 C   0  0  0  0  0  0  0  0  0  0  0  0
    1.7101   -2.0237    0.0000 C   0  0  0  0  0  0  0  0  0  0  0  0
    3.2047   -1.8967    0.0000 C   0  0  0  0  0  0  0  0  0  0  0  0
    3.8420   -0.5388    0.0000 C   0  0  0  0  0  0  0  0  0  0  0  0
    5.3366   -0.4118    0.0000 Cl  0  0  0  0  0  0  0  0  0  0  0  0
    2.9847    0.6921    0.0000 C   0  0  0  0  0  0  0  0  0  0  0  0
    3.6220    2.0499    0.0000 Cl  0  0  0  0  0  0  0  0  0  0  0  0
    1.4901    0.5651    0.0000 C   0  0  0  0  0  0  0  0  0  0  0  0
  1  2  1  0
  2  3  1  0
  3  4  1  0
  4  5  1  0
  5  6  1  0
  6  7  1  0
  7  8  1  0
  8  9  1  0
  9 10  1  0
 10 11  1  0
 11 12  2  0
 12 13  1  0
 13 14  2  0
 14 15  1  0
 15 16  2  0
 10 17  1  0
  2 18  1  0
 18 19  2  0
 19 20  1  0
 20 21  2  0
 21 22  1  0
 21 23  1  0
 23 24  1  0
 23 25  2  0
  8  4  1  0
 16 11  1  0
 25 18  1  0
 17  5  1  0
M  END
>  <ChemBL_ID>  (783) 
CHEMBL127013

>  <Compound_Key>  (783) 
10k

>  <Ki>  (783) 
18.8

>  <database>  (783) 
CHEMBL

>  <Assay_ChEMBL_ID>  (783) 
CHEMBL808910

>  <Document_ChEMBL_ID>  (783) 
CHEMBL1130429

$$$$

     RDKit          2D

 24 27  0  0  0  0  0  0  0  0999 V2000
   -1.0926   -2.2780    0.0000 O   0  0  0  0  0  0  0  0  0  0  0  0
   -0.4341   -0.9303    0.0000 C   0  0  0  0  0  0  0  0  0  0  0  0
   -1.2720    0.3139    0.0000 C   0  0  0  0  0  0  0  0  0  0  0  0
   -2.7684    0.2103    0.0000 N   0  0  0  0  0  0  0  0  0  0  0  0
   -3.5642   -1.0612    0.0000 C   0  0  0  0  0  0  0  0  0  0  0  0
   -5.0194   -0.6973    0.0000 C   0  0  0  0  0  0  0  0  0  0  0  0
   -5.1230    0.7991    0.0000 C   0  0  0  0  0  0  0  0  0  0  0  0
   -3.7318    1.3600    0.0000 C   0  0  0  0  0  0  0  0  0  0  0  0
   -2.2472    1.6342    0.0000 C   0  0  0  0  0  0  0  0  0  0  0  0
   -1.4093    0.3901    0.0000 C   0  0  0  0  0  0  0  0  0  0  0  0
    0.0871    0.4937    0.0000 C   0  0  0  0  0  0  0  0  0  0  0  0
    0.9251   -0.7505    0.0000 C   0  0  0  0  0  0  0  0  0  0  0  0
    2.4215   -0.6469    0.0000 C   0  0  0  0  0  0  0  0  0  0  0  0
    3.0800    0.7008    0.0000 C   0  0  0  0  0  0  0  0  0  0  0  0
    2.2421    1.9450    0.0000 C   0  0  0  0  0  0  0  0  0  0  0  0
    0.7457    1.8414    0.0000 C   0  0  0  0  0  0  0  0  0  0  0  0
   -2.0678   -0.9577    0.0000 C   0  0  0  0  0  0  0  0  0  0  0  0
    1.0623   -0.8267    0.0000 C   0  0  0  0  0  0  0  0  0  0  0  0
    1.9002   -2.0709    0.0000 C   0  0  0  0  0  0  0  0  0  0  0  0
    3.3967   -1.9673    0.0000 C   0  0  0  0  0  0  0  0  0  0  0  0
    4.0552   -0.6195    0.0000 C   0  0  0  0  0  0  0  0  0  0  0  0
    3.2173    0.6246    0.0000 C   0  0  0  0  0  0  0  0  0  0  0  0
    3.8758    1.9723    0.0000 Br  0  0  0  0  0  0  0  0  0  0  0  0
    1.7208    0.5210    0.0000 C   0  0  0  0  0  0  0  0  0  0  0  0
  1  2  1  0
  2  3  1  0
  3  4  1  0
  4  5  1  0
  5  6  1  0
  6  7  1  0
  7  8  1  0
  8  9  1  0
  9 10  1  0
 10 11  1  0
 11 12  2  0
 12 13  1  0
 13 14  2  0
 14 15  1  0
 15 16  2  0
 10 17  1  0
  2 18  1  0
 18 19  2  0
 19 20  1  0
 20 21  2  0
 21 22  1  0
 22 23  1  0
 22 24  2  0
  8  4  1  0
 16 11  1  0
 24 18  1  0
 17  5  1  0
M  END
>  <ChemBL_ID>  (784) 
CHEMBL127365

>  <Compound_Key>  (784) 
10h

>  <Ki>  (784) 
9.87

>  <database>  (784) 
CHEMBL

>  <Assay_ChEMBL_ID>  (784) 
CHEMBL808910

>  <Document_ChEMBL_ID>  (784) 
CHEMBL1130429

$$$$

     RDKit          2D

 23 26  0  0  0  0  0  0  0  0999 V2000
   -0.7932   -2.2429    0.0000 O   0  0  0  0  0  0  0  0  0  0  0  0
   -0.2153   -0.8587    0.0000 C   0  0  0  0  0  0  0  0  0  0  0  0
   -1.1251    0.3339    0.0000 C   0  0  0  0  0  0  0  0  0  0  0  0
   -2.6128    0.1422    0.0000 N   0  0  0  0  0  0  0  0  0  0  0  0
   -3.3323   -1.1740    0.0000 C   0  0  0  0  0  0  0  0  0  0  0  0
   -4.8064   -0.8965    0.0000 C   0  0  0  0  0  0  0  0  0  0  0  0
   -4.9980    0.5912    0.0000 C   0  0  0  0  0  0  0  0  0  0  0  0
   -3.6423    1.2332    0.0000 C   0  0  0  0  0  0  0  0  0  0  0  0
   -2.1765    1.5944    0.0000 C   0  0  0  0  0  0  0  0  0  0  0  0
   -1.2667    0.4018    0.0000 C   0  0  0  0  0  0  0  0  0  0  0  0
    0.2211    0.5935    0.0000 C   0  0  0  0  0  0  0  0  0  0  0  0
    1.1309   -0.5991    0.0000 C   0  0  0  0  0  0  0  0  0  0  0  0
    2.6186   -0.4075    0.0000 C   0  0  0  0  0  0  0  0  0  0  0  0
    3.1965    0.9767    0.0000 C   0  0  0  0  0  0  0  0  0  0  0  0
    2.2867    2.1693    0.0000 C   0  0  0  0  0  0  0  0  0  0  0  0
    0.7989    1.9777    0.0000 C   0  0  0  0  0  0  0  0  0  0  0  0
   -1.8446   -0.9824    0.0000 C   0  0  0  0  0  0  0  0  0  0  0  0
    1.2724   -0.6671    0.0000 C   0  0  0  0  0  0  0  0  0  0  0  0
    2.1822   -1.8597    0.0000 C   0  0  0  0  0  0  0  0  0  0  0  0
    3.6699   -1.6680    0.0000 C   0  0  0  0  0  0  0  0  0  0  0  0
    4.2478   -0.2838    0.0000 C   0  0  0  0  0  0  0  0  0  0  0  0
    3.3380    0.9088    0.0000 C   0  0  0  0  0  0  0  0  0  0  0  0
    1.8503    0.7171    0.0000 C   0  0  0  0  0  0  0  0  0  0  0  0
  1  2  1  0
  2  3  1  0
  3  4  1  0
  4  5  1  0
  5  6  1  0
  6  7  1  0
  7  8  1  0
  8  9  1  0
  9 10  1  0
 10 11  1  0
 11 12  2  0
 12 13  1  0
 13 14  2  0
 14 15  1  0
 15 16  2  0
 10 17  1  0
  2 18  1  0
 18 19  2  0
 19 20  1  0
 20 21  2  0
 21 22  1  0
 22 23  2  0
  8  4  1  0
 16 11  1  0
 23 18  1  0
 17  5  1  0
M  END
>  <ChemBL_ID>  (785) 
CHEMBL126742

>  <Compound_Key>  (785) 
10f

>  <Ki>  (785) 
32.7

>  <database>  (785) 
CHEMBL

>  <Assay_ChEMBL_ID>  (785) 
CHEMBL808910

>  <Document_ChEMBL_ID>  (785) 
CHEMBL1130429

$$$$

     RDKit          2D

 24 27  0  0  0  0  0  0  0  0999 V2000
   -0.8896   -2.3137    0.0000 O   0  0  0  0  0  0  0  0  0  0  0  0
   -0.2856   -0.9407    0.0000 C   0  0  0  0  0  0  0  0  0  0  0  0
   -1.1726    0.2689    0.0000 C   0  0  0  0  0  0  0  0  0  0  0  0
   -2.6637    0.1055    0.0000 N   0  0  0  0  0  0  0  0  0  0  0  0
   -3.4079   -1.1968    0.0000 C   0  0  0  0  0  0  0  0  0  0  0  0
   -4.8765   -0.8914    0.0000 C   0  0  0  0  0  0  0  0  0  0  0  0
   -5.0399    0.5996    0.0000 C   0  0  0  0  0  0  0  0  0  0  0  0
   -3.6723    1.2158    0.0000 C   0  0  0  0  0  0  0  0  0  0  0  0
   -2.1998    1.5492    0.0000 C   0  0  0  0  0  0  0  0  0  0  0  0
   -1.3128    0.3395    0.0000 C   0  0  0  0  0  0  0  0  0  0  0  0
    0.1783    0.5029    0.0000 C   0  0  0  0  0  0  0  0  0  0  0  0
    1.0653   -0.7067    0.0000 C   0  0  0  0  0  0  0  0  0  0  0  0
    2.5564   -0.5433    0.0000 C   0  0  0  0  0  0  0  0  0  0  0  0
    3.1604    0.8297    0.0000 C   0  0  0  0  0  0  0  0  0  0  0  0
    2.2734    2.0393    0.0000 C   0  0  0  0  0  0  0  0  0  0  0  0
    0.7823    1.8759    0.0000 C   0  0  0  0  0  0  0  0  0  0  0  0
   -1.9168   -1.0335    0.0000 C   0  0  0  0  0  0  0  0  0  0  0  0
    1.2055   -0.7774    0.0000 C   0  0  0  0  0  0  0  0  0  0  0  0
    2.0925   -1.9870    0.0000 C   0  0  0  0  0  0  0  0  0  0  0  0
    3.5836   -1.8236    0.0000 C   0  0  0  0  0  0  0  0  0  0  0  0
    4.1877   -0.4506    0.0000 C   0  0  0  0  0  0  0  0  0  0  0  0
    3.3006    0.7590    0.0000 C   0  0  0  0  0  0  0  0  0  0  0  0
    1.8096    0.5956    0.0000 C   0  0  0  0  0  0  0  0  0  0  0  0
    1.2416    1.9839    0.0000 Br  0  0  0  0  0  0  0  0  0  0  0  0
  1  2  1  0
  2  3  1  0
  3  4  1  0
  4  5  1  0
  5  6  1  0
  6  7  1  0
  7  8  1  0
  8  9  1  0
  9 10  1  0
 10 11  1  0
 11 12  2  0
 12 13  1  0
 13 14  2  0
 14 15  1  0
 15 16  2  0
 10 17  1  0
  2 18  1  0
 18 19  2  0
 19 20  1  0
 20 21  2  0
 21 22  1  0
 22 23  2  0
 23 24  1  0
  8  4  1  0
 16 11  1  0
 23 18  1  0
 17  5  1  0
M  END
>  <ChemBL_ID>  (786) 
CHEMBL337929

>  <Compound_Key>  (786) 
10g

>  <Ki>  (786) 
7.71

>  <database>  (786) 
CHEMBL

>  <Assay_ChEMBL_ID>  (786) 
CHEMBL808910

>  <Document_ChEMBL_ID>  (786) 
CHEMBL1130429

$$$$

     RDKit          2D

 24 26  0  0  0  0  0  0  0  0999 V2000
   -8.5095   -1.1898    0.0000 C   0  0  0  0  0  0  0  0  0  0  0  0
   -7.0900   -0.7051    0.0000 C   0  0  0  0  0  0  0  0  0  0  0  0
   -6.8000    0.7666    0.0000 C   0  0  0  0  0  0  0  0  0  0  0  0
   -5.3805    1.2513    0.0000 C   0  0  0  0  0  0  0  0  0  0  0  0
   -4.2510    0.2643    0.0000 N   0  0  0  0  0  0  0  0  0  0  0  0
   -2.8314    0.7490    0.0000 C   0  0  0  0  0  0  0  0  0  0  0  0
   -1.7019   -0.2380    0.0000 C   0  0  0  0  0  0  0  0  0  0  0  0
   -0.2824    0.2467    0.0000 C   0  0  0  0  0  0  0  0  0  0  0  0
    0.8472   -0.7402    0.0000 C   0  0  0  0  0  0  0  0  0  0  0  0
    2.2667   -0.2555    0.0000 C   0  0  0  0  0  0  0  0  0  0  0  0
    3.3962   -1.2425    0.0000 C   0  0  0  0  0  0  0  0  0  0  0  0
    3.1062   -2.7142    0.0000 C   0  0  0  0  0  0  0  0  0  0  0  0
    4.2358   -3.7012    0.0000 C   0  0  0  0  0  0  0  0  0  0  0  0
    5.6553   -3.2165    0.0000 C   0  0  0  0  0  0  0  0  0  0  0  0
    5.9453   -1.7448    0.0000 C   0  0  0  0  0  0  0  0  0  0  0  0
    4.8157   -0.7578    0.0000 C   0  0  0  0  0  0  0  0  0  0  0  0
    2.5567    1.2162    0.0000 C   0  0  0  0  0  0  0  0  0  0  0  0
    3.9762    1.7009    0.0000 C   0  0  0  0  0  0  0  0  0  0  0  0
    4.2662    3.1726    0.0000 C   0  0  0  0  0  0  0  0  0  0  0  0
    3.1366    4.1596    0.0000 C   0  0  0  0  0  0  0  0  0  0  0  0
    1.7171    3.6749    0.0000 C   0  0  0  0  0  0  0  0  0  0  0  0
    1.4271    2.2032    0.0000 C   0  0  0  0  0  0  0  0  0  0  0  0
   -4.5410   -1.2074    0.0000 C   0  0  0  0  0  0  0  0  0  0  0  0
   -5.9605   -1.6921    0.0000 C   0  0  0  0  0  0  0  0  0  0  0  0
  1  2  1  0
  2  3  1  0
  3  4  1  0
  4  5  1  0
  5  6  1  0
  6  7  1  0
  7  8  1  0
  8  9  1  0
  9 10  1  0
 10 11  1  0
 11 12  2  0
 12 13  1  0
 13 14  2  0
 14 15  1  0
 15 16  2  0
 10 17  1  0
 17 18  2  0
 18 19  1  0
 19 20  2  0
 20 21  1  0
 21 22  2  0
  5 23  1  0
 23 24  1  0
 24  2  1  0
 16 11  1  0
 22 17  1  0
M  END
>  <ChemBL_ID>  (787) 
CHEMBL302087

>  <Compound_Key>  (787) 
9

>  <Ki>  (787) 
17.0

>  <database>  (787) 
CHEMBL

>  <Assay_ChEMBL_ID>  (787) 
CHEMBL809520

>  <Document_ChEMBL_ID>  (787) 
CHEMBL1147560

$$$$

     RDKit          2D

 24 27  0  0  0  0  0  0  0  0999 V2000
   -7.6732    0.5156    0.0000 C   0  0  0  0  0  0  0  0  0  0  0  0
   -6.2813   -0.0435    0.0000 C   0  0  0  0  0  0  0  0  0  0  0  0
   -5.1012    0.8824    0.0000 C   0  0  0  0  0  0  0  0  0  0  0  0
   -3.7093    0.3233    0.0000 C   0  0  0  0  0  0  0  0  0  0  0  0
   -3.4975   -1.1617    0.0000 N   0  0  0  0  0  0  0  0  0  0  0  0
   -2.1056   -1.7208    0.0000 C   0  0  0  0  0  0  0  0  0  0  0  0
   -0.9254   -0.7949    0.0000 C   0  0  0  0  0  0  0  0  0  0  0  0
    0.4665   -1.3540    0.0000 C   0  0  0  0  0  0  0  0  0  0  0  0
    1.6466   -0.4281    0.0000 C   0  0  0  0  0  0  0  0  0  0  0  0
    3.0385   -0.9871    0.0000 C   0  0  0  0  0  0  0  0  0  0  0  0
    3.2503   -2.4721    0.0000 C   0  0  0  0  0  0  0  0  0  0  0  0
    4.6422   -3.0312    0.0000 C   0  0  0  0  0  0  0  0  0  0  0  0
    5.8223   -2.1053    0.0000 C   0  0  0  0  0  0  0  0  0  0  0  0
    5.6106   -0.6203    0.0000 C   0  0  0  0  0  0  0  0  0  0  0  0
    4.2187   -0.0612    0.0000 C   0  0  0  0  0  0  0  0  0  0  0  0
    4.0069    1.4237    0.0000 S   0  0  0  0  0  0  0  0  0  0  0  0
    2.6150    1.9828    0.0000 C   0  0  0  0  0  0  0  0  0  0  0  0
    2.4032    3.4678    0.0000 C   0  0  0  0  0  0  0  0  0  0  0  0
    1.0113    4.0269    0.0000 C   0  0  0  0  0  0  0  0  0  0  0  0
   -0.1689    3.1010    0.0000 C   0  0  0  0  0  0  0  0  0  0  0  0
    0.0429    1.6160    0.0000 C   0  0  0  0  0  0  0  0  0  0  0  0
    1.4348    1.0569    0.0000 C   0  0  0  0  0  0  0  0  0  0  0  0
   -4.6776   -2.0876    0.0000 C   0  0  0  0  0  0  0  0  0  0  0  0
   -6.0696   -1.5285    0.0000 C   0  0  0  0  0  0  0  0  0  0  0  0
  1  2  1  0
  2  3  1  0
  3  4  1  0
  4  5  1  0
  5  6  1  0
  6  7  1  0
  7  8  1  0
  8  9  2  0
  9 10  1  0
 10 11  2  0
 11 12  1  0
 12 13  2  0
 13 14  1  0
 14 15  2  0
 15 16  1  0
 16 17  1  0
 17 18  2  0
 18 19  1  0
 19 20  2  0
 20 21  1  0
 21 22  2  0
  5 23  1  0
 23 24  1  0
 24  2  1  0
 22  9  1  0
 15 10  1  0
 22 17  1  0
M  END
>  <ChemBL_ID>  (788) 
CHEMBL305218

>  <Compound_Key>  (788) 
5

>  <Ki>  (788) 
26.0

>  <database>  (788) 
CHEMBL

>  <Assay_ChEMBL_ID>  (788) 
CHEMBL809520

>  <Document_ChEMBL_ID>  (788) 
CHEMBL1147560

$$$$

     RDKit          2D

 24 26  0  0  0  0  0  0  0  0999 V2000
   -8.5095   -1.1898    0.0000 C   0  0  0  0  0  0  0  0  0  0  0  0
   -7.0900   -0.7051    0.0000 C   0  0  0  0  0  0  0  0  0  0  0  0
   -6.8000    0.7666    0.0000 C   0  0  0  0  0  0  0  0  0  0  0  0
   -5.3805    1.2513    0.0000 C   0  0  0  0  0  0  0  0  0  0  0  0
   -4.2510    0.2643    0.0000 N   0  0  0  0  0  0  0  0  0  0  0  0
   -2.8314    0.7490    0.0000 C   0  0  0  0  0  0  0  0  0  0  0  0
   -1.7019   -0.2380    0.0000 C   0  0  0  0  0  0  0  0  0  0  0  0
   -0.2824    0.2467    0.0000 C   0  0  0  0  0  0  0  0  0  0  0  0
    0.8472   -0.7402    0.0000 C   0  0  0  0  0  0  0  0  0  0  0  0
    2.2667   -0.2555    0.0000 C   0  0  0  0  0  0  0  0  0  0  0  0
    3.3962   -1.2425    0.0000 C   0  0  0  0  0  0  0  0  0  0  0  0
    3.1062   -2.7142    0.0000 C   0  0  0  0  0  0  0  0  0  0  0  0
    4.2358   -3.7012    0.0000 C   0  0  0  0  0  0  0  0  0  0  0  0
    5.6553   -3.2165    0.0000 C   0  0  0  0  0  0  0  0  0  0  0  0
    5.9453   -1.7448    0.0000 C   0  0  0  0  0  0  0  0  0  0  0  0
    4.8157   -0.7578    0.0000 C   0  0  0  0  0  0  0  0  0  0  0  0
    2.5567    1.2162    0.0000 C   0  0  0  0  0  0  0  0  0  0  0  0
    3.9762    1.7009    0.0000 C   0  0  0  0  0  0  0  0  0  0  0  0
    4.2662    3.1726    0.0000 C   0  0  0  0  0  0  0  0  0  0  0  0
    3.1366    4.1596    0.0000 C   0  0  0  0  0  0  0  0  0  0  0  0
    1.7171    3.6749    0.0000 C   0  0  0  0  0  0  0  0  0  0  0  0
    1.4271    2.2032    0.0000 C   0  0  0  0  0  0  0  0  0  0  0  0
   -4.5410   -1.2074    0.0000 C   0  0  0  0  0  0  0  0  0  0  0  0
   -5.9605   -1.6921    0.0000 C   0  0  0  0  0  0  0  0  0  0  0  0
  1  2  1  0
  2  3  1  0
  3  4  1  0
  4  5  1  0
  5  6  1  0
  6  7  1  0
  7  8  1  0
  8  9  1  0
  9 10  2  0
 10 11  1  0
 11 12  2  0
 12 13  1  0
 13 14  2  0
 14 15  1  0
 15 16  2  0
 10 17  1  0
 17 18  2  0
 18 19  1  0
 19 20  2  0
 20 21  1  0
 21 22  2  0
  5 23  1  0
 23 24  1  0
 24  2  1  0
 16 11  1  0
 22 17  1  0
M  END
>  <ChemBL_ID>  (789) 
CHEMBL67808

>  <Compound_Key>  (789) 
8

>  <Ki>  (789) 
25.0

>  <database>  (789) 
CHEMBL

>  <Assay_ChEMBL_ID>  (789) 
CHEMBL809520

>  <Document_ChEMBL_ID>  (789) 
CHEMBL1147560

$$$$

     RDKit          2D

 27 29  0  0  0  0  0  0  0  0999 V2000
   -3.6640   -3.7705    0.0000 C   0  0  0  0  0  0  0  0  0  0  0  0
   -2.9542   -2.4491    0.0000 N   0  0  0  0  0  0  0  0  0  0  0  0
   -1.4549   -2.4032    0.0000 C   0  0  0  0  0  0  0  0  0  0  0  0
   -0.7450   -1.0818    0.0000 C   0  0  0  0  0  0  0  0  0  0  0  0
    0.7543   -1.0359    0.0000 C   0  0  0  0  0  0  0  0  0  0  0  0
    1.4642    0.2855    0.0000 C   0  0  0  0  0  0  0  0  0  0  0  0
    2.9635    0.3315    0.0000 C   0  0  0  0  0  0  0  0  0  0  0  0
    3.6733    1.6529    0.0000 C   0  0  0  0  0  0  0  0  0  0  0  0
    5.1726    1.6988    0.0000 C   0  0  0  0  0  0  0  0  0  0  0  0
    5.8825    3.0202    0.0000 C   0  0  0  0  0  0  0  0  0  0  0  0
    5.0931    4.2957    0.0000 C   0  0  0  0  0  0  0  0  0  0  0  0
    3.5938    4.2497    0.0000 C   0  0  0  0  0  0  0  0  0  0  0  0
    2.8839    2.9283    0.0000 C   0  0  0  0  0  0  0  0  0  0  0  0
    3.7529   -0.9440    0.0000 C   0  0  0  0  0  0  0  0  0  0  0  0
    3.0430   -2.2654    0.0000 C   0  0  0  0  0  0  0  0  0  0  0  0
    3.8325   -3.5408    0.0000 C   0  0  0  0  0  0  0  0  0  0  0  0
    5.3317   -3.4949    0.0000 C   0  0  0  0  0  0  0  0  0  0  0  0
    6.0416   -2.1735    0.0000 C   0  0  0  0  0  0  0  0  0  0  0  0
    5.2522   -0.8981    0.0000 C   0  0  0  0  0  0  0  0  0  0  0  0
   -3.7436   -1.1737    0.0000 C   0  0  0  0  0  0  0  0  0  0  0  0
   -5.2429   -1.2196    0.0000 C   0  0  0  0  0  0  0  0  0  0  0  0
   -6.0323    0.0559    0.0000 C   0  0  0  0  0  0  0  0  0  0  0  0
   -5.3225    1.3773    0.0000 C   0  0  0  0  0  0  0  0  0  0  0  0
   -6.1119    2.6527    0.0000 C   0  0  0  0  0  0  0  0  0  0  0  0
   -7.6112    2.6068    0.0000 C   0  0  0  0  0  0  0  0  0  0  0  0
   -8.3210    1.2854    0.0000 C   0  0  0  0  0  0  0  0  0  0  0  0
   -7.5316    0.0099    0.0000 C   0  0  0  0  0  0  0  0  0  0  0  0
  1  2  1  0
  2  3  1  0
  3  4  1  0
  4  5  1  0
  5  6  1  0
  6  7  2  0
  7  8  1  0
  8  9  2  0
  9 10  1  0
 10 11  2  0
 11 12  1  0
 12 13  2  0
  7 14  1  0
 14 15  2  0
 15 16  1  0
 16 17  2  0
 17 18  1  0
 18 19  2  0
  2 20  1  0
 20 21  1  0
 21 22  1  0
 22 23  2  0
 23 24  1  0
 24 25  2  0
 25 26  1  0
 26 27  2  0
 13  8  1  0
 19 14  1  0
 27 22  1  0
M  END
>  <ChemBL_ID>  (790) 
CHEMBL71155

>  <Compound_Key>  (790) 
15a

>  <Ki>  (790) 
41.0

>  <database>  (790) 
CHEMBL

>  <Assay_ChEMBL_ID>  (790) 
CHEMBL809520

>  <Document_ChEMBL_ID>  (790) 
CHEMBL1147560

$$$$

     RDKit          2D

 23 24  0  0  0  0  0  0  0  0999 V2000
   -7.3119   -0.6969    0.0000 C   0  0  0  0  0  0  0  0  0  0  0  0
   -5.8536   -1.0480    0.0000 C   0  0  0  0  0  0  0  0  0  0  0  0
   -4.8203    0.0394    0.0000 N   0  0  0  0  0  0  0  0  0  0  0  0
   -5.2454    1.4779    0.0000 C   0  0  0  0  0  0  0  0  0  0  0  0
   -6.7038    1.8290    0.0000 C   0  0  0  0  0  0  0  0  0  0  0  0
   -3.3620   -0.3117    0.0000 C   0  0  0  0  0  0  0  0  0  0  0  0
   -2.3288    0.7757    0.0000 C   0  0  0  0  0  0  0  0  0  0  0  0
   -0.8704    0.4246    0.0000 C   0  0  0  0  0  0  0  0  0  0  0  0
    0.1628    1.5120    0.0000 C   0  0  0  0  0  0  0  0  0  0  0  0
    1.6211    1.1609    0.0000 C   0  0  0  0  0  0  0  0  0  0  0  0
    1.9722    2.6192    0.0000 O   0  0  0  0  0  0  0  0  0  0  0  0
    3.0794    0.8098    0.0000 C   0  0  0  0  0  0  0  0  0  0  0  0
    3.5045   -0.6287    0.0000 C   0  0  0  0  0  0  0  0  0  0  0  0
    4.9629   -0.9798    0.0000 C   0  0  0  0  0  0  0  0  0  0  0  0
    5.9961    0.1076    0.0000 C   0  0  0  0  0  0  0  0  0  0  0  0
    5.5710    1.5461    0.0000 C   0  0  0  0  0  0  0  0  0  0  0  0
    4.1127    1.8972    0.0000 C   0  0  0  0  0  0  0  0  0  0  0  0
    1.2700   -0.2974    0.0000 C   0  0  0  0  0  0  0  0  0  0  0  0
   -0.1685   -0.7225    0.0000 C   0  0  0  0  0  0  0  0  0  0  0  0
   -0.5196   -2.1809    0.0000 C   0  0  0  0  0  0  0  0  0  0  0  0
    0.5678   -3.2141    0.0000 C   0  0  0  0  0  0  0  0  0  0  0  0
    2.0063   -2.7890    0.0000 C   0  0  0  0  0  0  0  0  0  0  0  0
    2.3574   -1.3307    0.0000 C   0  0  0  0  0  0  0  0  0  0  0  0
  1  2  1  0
  2  3  1  0
  3  4  1  0
  4  5  1  0
  3  6  1  0
  6  7  1  0
  7  8  1  0
  8  9  1  0
  9 10  1  0
 10 11  1  0
 10 12  1  0
 12 13  2  0
 13 14  1  0
 14 15  2  0
 15 16  1  0
 16 17  2  0
 10 18  1  0
 18 19  2  0
 19 20  1  0
 20 21  2  0
 21 22  1  0
 22 23  2  0
 17 12  1  0
 23 18  1  0
M  END
>  <ChemBL_ID>  (791) 
CHEMBL71773

>  <Compound_Key>  (791) 
13

>  <Ki>  (791) 
800.0

>  <database>  (791) 
CHEMBL

>  <Assay_ChEMBL_ID>  (791) 
CHEMBL809520

>  <Document_ChEMBL_ID>  (791) 
CHEMBL1147560

$$$$

     RDKit          2D

 17 18  0  0  0  0  0  0  0  0999 V2000
   -7.1285   -0.7118    0.0000 C   0  0  0  0  0  0  0  0  0  0  0  0
   -5.6832   -0.3102    0.0000 N   0  0  0  0  0  0  0  0  0  0  0  0
   -5.3084    1.1422    0.0000 C   0  0  0  0  0  0  0  0  0  0  0  0
   -3.8631    1.5438    0.0000 C   0  0  0  0  0  0  0  0  0  0  0  0
   -2.7927    0.4929    0.0000 N   0  0  0  0  0  0  0  0  0  0  0  0
   -1.3475    0.8945    0.0000 C   0  0  0  0  0  0  0  0  0  0  0  0
   -0.2771   -0.1563    0.0000 C   0  0  0  0  0  0  0  0  0  0  0  0
    1.1682    0.2453    0.0000 C   0  0  0  0  0  0  0  0  0  0  0  0
    2.2386   -0.8055    0.0000 C   0  0  0  0  0  0  0  0  0  0  0  0
    3.6838   -0.4040    0.0000 C   0  0  0  0  0  0  0  0  0  0  0  0
    4.7542   -1.4548    0.0000 C   0  0  0  0  0  0  0  0  0  0  0  0
    6.1995   -1.0532    0.0000 C   0  0  0  0  0  0  0  0  0  0  0  0
    6.5743    0.3992    0.0000 C   0  0  0  0  0  0  0  0  0  0  0  0
    5.5039    1.4500    0.0000 C   0  0  0  0  0  0  0  0  0  0  0  0
    4.0586    1.0485    0.0000 C   0  0  0  0  0  0  0  0  0  0  0  0
   -3.1676   -0.9595    0.0000 C   0  0  0  0  0  0  0  0  0  0  0  0
   -4.6128   -1.3611    0.0000 C   0  0  0  0  0  0  0  0  0  0  0  0
  1  2  1  0
  2  3  1  0
  3  4  1  0
  4  5  1  0
  5  6  1  0
  6  7  1  0
  7  8  1  0
  8  9  2  0
  9 10  1  0
 10 11  2  0
 11 12  1  0
 12 13  2  0
 13 14  1  0
 14 15  2  0
  5 16  1  0
 16 17  1  0
 17  2  1  0
 15 10  1  0
M  END
>  <ChemBL_ID>  (792) 
CHEMBL68905

>  <Compound_Key>  (792) 
3 (E)a

>  <Ki>  (792) 
1300.0

>  <database>  (792) 
CHEMBL

>  <Assay_ChEMBL_ID>  (792) 
CHEMBL809520

>  <Document_ChEMBL_ID>  (792) 
CHEMBL1147560

$$$$

     RDKit          2D

 17 18  0  0  0  0  0  0  0  0999 V2000
   -5.5148   -2.0229    0.0000 C   0  0  0  0  0  0  0  0  0  0  0  0
   -4.3914   -1.0289    0.0000 N   0  0  0  0  0  0  0  0  0  0  0  0
   -4.6906    0.4410    0.0000 C   0  0  0  0  0  0  0  0  0  0  0  0
   -3.5673    1.4350    0.0000 C   0  0  0  0  0  0  0  0  0  0  0  0
   -2.1447    0.9592    0.0000 N   0  0  0  0  0  0  0  0  0  0  0  0
   -1.0214    1.9532    0.0000 C   0  0  0  0  0  0  0  0  0  0  0  0
    0.4011    1.4773    0.0000 C   0  0  0  0  0  0  0  0  0  0  0  0
    1.5245    2.4714    0.0000 C   0  0  0  0  0  0  0  0  0  0  0  0
    2.9470    1.9955    0.0000 C   0  0  0  0  0  0  0  0  0  0  0  0
    3.2462    0.5256    0.0000 C   0  0  0  0  0  0  0  0  0  0  0  0
    2.1228   -0.4684    0.0000 C   0  0  0  0  0  0  0  0  0  0  0  0
    2.4220   -1.9382    0.0000 C   0  0  0  0  0  0  0  0  0  0  0  0
    3.8445   -2.4141    0.0000 C   0  0  0  0  0  0  0  0  0  0  0  0
    4.9679   -1.4201    0.0000 C   0  0  0  0  0  0  0  0  0  0  0  0
    4.6687    0.0498    0.0000 C   0  0  0  0  0  0  0  0  0  0  0  0
   -1.8456   -0.5107    0.0000 C   0  0  0  0  0  0  0  0  0  0  0  0
   -2.9689   -1.5047    0.0000 C   0  0  0  0  0  0  0  0  0  0  0  0
  1  2  1  0
  2  3  1  0
  3  4  1  0
  4  5  1  0
  5  6  1  0
  6  7  1  0
  7  8  1  0
  8  9  2  0
  9 10  1  0
 10 11  2  0
 11 12  1  0
 12 13  2  0
 13 14  1  0
 14 15  2  0
  5 16  1  0
 16 17  1  0
 17  2  1  0
 15 10  1  0
M  END
>  <ChemBL_ID>  (793) 
CHEMBL72061

>  <Compound_Key>  (793) 
3 (Z)b

>  <Ki>  (793) 
2540.0

>  <database>  (793) 
CHEMBL

>  <Assay_ChEMBL_ID>  (793) 
CHEMBL809520

>  <Document_ChEMBL_ID>  (793) 
CHEMBL1147560

$$$$

     RDKit          2D

 23 25  0  0  0  0  0  0  0  0999 V2000
   -7.5098   -0.4154    0.0000 C   0  0  0  0  0  0  0  0  0  0  0  0
   -6.1061    0.1135    0.0000 C   0  0  0  0  0  0  0  0  0  0  0  0
   -5.8623    1.5935    0.0000 C   0  0  0  0  0  0  0  0  0  0  0  0
   -4.4586    2.1224    0.0000 C   0  0  0  0  0  0  0  0  0  0  0  0
   -3.2988    1.1713    0.0000 N   0  0  0  0  0  0  0  0  0  0  0  0
   -1.8951    1.7002    0.0000 C   0  0  0  0  0  0  0  0  0  0  0  0
   -0.7352    0.7490    0.0000 C   0  0  0  0  0  0  0  0  0  0  0  0
    0.6684    1.2779    0.0000 C   0  0  0  0  0  0  0  0  0  0  0  0
    1.8283    0.3268    0.0000 C   0  0  0  0  0  0  0  0  0  0  0  0
    3.2320    0.8557    0.0000 C   0  0  0  0  0  0  0  0  0  0  0  0
    4.3918   -0.0955    0.0000 C   0  0  0  0  0  0  0  0  0  0  0  0
    5.7955    0.4334    0.0000 C   0  0  0  0  0  0  0  0  0  0  0  0
    6.0393    1.9134    0.0000 C   0  0  0  0  0  0  0  0  0  0  0  0
    4.8794    2.8646    0.0000 C   0  0  0  0  0  0  0  0  0  0  0  0
    3.4758    2.3357    0.0000 C   0  0  0  0  0  0  0  0  0  0  0  0
    1.5845   -1.1533    0.0000 C   0  0  0  0  0  0  0  0  0  0  0  0
    0.1808   -1.6822    0.0000 C   0  0  0  0  0  0  0  0  0  0  0  0
   -0.0630   -3.1622    0.0000 C   0  0  0  0  0  0  0  0  0  0  0  0
    1.0969   -4.1134    0.0000 C   0  0  0  0  0  0  0  0  0  0  0  0
    2.5006   -3.5845    0.0000 C   0  0  0  0  0  0  0  0  0  0  0  0
    2.7444   -2.1045    0.0000 C   0  0  0  0  0  0  0  0  0  0  0  0
   -3.5426   -0.3088    0.0000 C   0  0  0  0  0  0  0  0  0  0  0  0
   -4.9462   -0.8377    0.0000 C   0  0  0  0  0  0  0  0  0  0  0  0
  1  2  1  0
  2  3  1  0
  3  4  1  0
  4  5  1  0
  5  6  1  0
  6  7  1  0
  7  8  1  0
  8  9  2  0
  9 10  1  0
 10 11  2  0
 11 12  1  0
 12 13  2  0
 13 14  1  0
 14 15  2  0
  9 16  1  0
 16 17  2  0
 17 18  1  0
 18 19  2  0
 19 20  1  0
 20 21  2  0
  5 22  1  0
 22 23  1  0
 23  2  1  0
 15 10  1  0
 21 16  1  0
M  END
>  <ChemBL_ID>  (794) 
CHEMBL72045

>  <Compound_Key>  (794) 
6

>  <Ki>  (794) 
28.0

>  <database>  (794) 
CHEMBL

>  <Assay_ChEMBL_ID>  (794) 
CHEMBL809520

>  <Document_ChEMBL_ID>  (794) 
CHEMBL1147560

$$$$

     RDKit          2D

 23 25  0  0  0  0  0  0  0  0999 V2000
   -7.5098   -0.4154    0.0000 C   0  0  0  0  0  0  0  0  0  0  0  0
   -6.1061    0.1135    0.0000 C   0  0  0  0  0  0  0  0  0  0  0  0
   -5.8623    1.5935    0.0000 C   0  0  0  0  0  0  0  0  0  0  0  0
   -4.4586    2.1224    0.0000 C   0  0  0  0  0  0  0  0  0  0  0  0
   -3.2988    1.1713    0.0000 N   0  0  0  0  0  0  0  0  0  0  0  0
   -1.8951    1.7002    0.0000 C   0  0  0  0  0  0  0  0  0  0  0  0
   -0.7352    0.7490    0.0000 C   0  0  0  0  0  0  0  0  0  0  0  0
    0.6684    1.2779    0.0000 C   0  0  0  0  0  0  0  0  0  0  0  0
    1.8283    0.3268    0.0000 C   0  0  0  0  0  0  0  0  0  0  0  0
    3.2320    0.8557    0.0000 C   0  0  0  0  0  0  0  0  0  0  0  0
    4.3918   -0.0955    0.0000 C   0  0  0  0  0  0  0  0  0  0  0  0
    5.7955    0.4334    0.0000 C   0  0  0  0  0  0  0  0  0  0  0  0
    6.0393    1.9134    0.0000 C   0  0  0  0  0  0  0  0  0  0  0  0
    4.8794    2.8646    0.0000 C   0  0  0  0  0  0  0  0  0  0  0  0
    3.4758    2.3357    0.0000 C   0  0  0  0  0  0  0  0  0  0  0  0
    1.5845   -1.1533    0.0000 C   0  0  0  0  0  0  0  0  0  0  0  0
    0.1808   -1.6822    0.0000 C   0  0  0  0  0  0  0  0  0  0  0  0
   -0.0630   -3.1622    0.0000 C   0  0  0  0  0  0  0  0  0  0  0  0
    1.0969   -4.1134    0.0000 C   0  0  0  0  0  0  0  0  0  0  0  0
    2.5006   -3.5845    0.0000 C   0  0  0  0  0  0  0  0  0  0  0  0
    2.7444   -2.1045    0.0000 C   0  0  0  0  0  0  0  0  0  0  0  0
   -3.5426   -0.3088    0.0000 C   0  0  0  0  0  0  0  0  0  0  0  0
   -4.9462   -0.8377    0.0000 C   0  0  0  0  0  0  0  0  0  0  0  0
  1  2  1  0
  2  3  1  0
  3  4  1  0
  4  5  1  0
  5  6  1  0
  6  7  1  0
  7  8  1  0
  8  9  1  0
  9 10  1  0
 10 11  2  0
 11 12  1  0
 12 13  2  0
 13 14  1  0
 14 15  2  0
  9 16  1  0
 16 17  2  0
 17 18  1  0
 18 19  2  0
 19 20  1  0
 20 21  2  0
  5 22  1  0
 22 23  1  0
 23  2  1  0
 15 10  1  0
 21 16  1  0
M  END
>  <ChemBL_ID>  (795) 
CHEMBL71883

>  <Compound_Key>  (795) 
7

>  <Ki>  (795) 
28.0

>  <database>  (795) 
CHEMBL

>  <Assay_ChEMBL_ID>  (795) 
CHEMBL809520

>  <Document_ChEMBL_ID>  (795) 
CHEMBL1147560

$$$$

     RDKit          2D

 22 23  0  0  0  0  0  0  0  0999 V2000
   -7.5377   -0.1793    0.0000 C   0  0  0  0  0  0  0  0  0  0  0  0
   -6.1536   -0.7574    0.0000 C   0  0  0  0  0  0  0  0  0  0  0  0
   -4.9609    0.1522    0.0000 N   0  0  0  0  0  0  0  0  0  0  0  0
   -5.1523    1.6400    0.0000 C   0  0  0  0  0  0  0  0  0  0  0  0
   -6.5365    2.2181    0.0000 C   0  0  0  0  0  0  0  0  0  0  0  0
   -3.5768   -0.4259    0.0000 C   0  0  0  0  0  0  0  0  0  0  0  0
   -2.3841    0.4838    0.0000 C   0  0  0  0  0  0  0  0  0  0  0  0
   -0.9999   -0.0943    0.0000 C   0  0  0  0  0  0  0  0  0  0  0  0
    0.1928    0.8154    0.0000 C   0  0  0  0  0  0  0  0  0  0  0  0
    1.5769    0.2373    0.0000 C   0  0  0  0  0  0  0  0  0  0  0  0
    2.7696    1.1469    0.0000 C   0  0  0  0  0  0  0  0  0  0  0  0
    4.1537    0.5688    0.0000 C   0  0  0  0  0  0  0  0  0  0  0  0
    5.3464    1.4785    0.0000 C   0  0  0  0  0  0  0  0  0  0  0  0
    5.1550    2.9662    0.0000 C   0  0  0  0  0  0  0  0  0  0  0  0
    3.7709    3.5443    0.0000 C   0  0  0  0  0  0  0  0  0  0  0  0
    2.5782    2.6347    0.0000 C   0  0  0  0  0  0  0  0  0  0  0  0
    1.7683   -1.2505    0.0000 C   0  0  0  0  0  0  0  0  0  0  0  0
    0.5756   -2.1601    0.0000 C   0  0  0  0  0  0  0  0  0  0  0  0
    0.7670   -3.6478    0.0000 C   0  0  0  0  0  0  0  0  0  0  0  0
    2.1512   -4.2259    0.0000 C   0  0  0  0  0  0  0  0  0  0  0  0
    3.3439   -3.3163    0.0000 C   0  0  0  0  0  0  0  0  0  0  0  0
    3.1524   -1.8286    0.0000 C   0  0  0  0  0  0  0  0  0  0  0  0
  1  2  1  0
  2  3  1  0
  3  4  1  0
  4  5  1  0
  3  6  1  0
  6  7  1  0
  7  8  1  0
  8  9  1  0
  9 10  1  0
 10 11  1  0
 11 12  2  0
 12 13  1  0
 13 14  2  0
 14 15  1  0
 15 16  2  0
 10 17  1  0
 17 18  2  0
 18 19  1  0
 19 20  2  0
 20 21  1  0
 21 22  2  0
 16 11  1  0
 22 17  1  0
M  END
>  <ChemBL_ID>  (796) 
CHEMBL305461

>  <Compound_Key>  (796) 
14

>  <Ki>  (796) 
51.0

>  <database>  (796) 
CHEMBL

>  <Assay_ChEMBL_ID>  (796) 
CHEMBL809520

>  <Document_ChEMBL_ID>  (796) 
CHEMBL1147560

$$$$

     RDKit          2D

 26 28  0  0  0  0  0  0  0  0999 V2000
   -9.5242   -0.7794    0.0000 C   0  0  0  0  0  0  0  0  0  0  0  0
   -9.4743    0.7198    0.0000 C   0  0  0  0  0  0  0  0  0  0  0  0
   -8.1510    1.4261    0.0000 C   0  0  0  0  0  0  0  0  0  0  0  0
   -6.8776    0.6332    0.0000 C   0  0  0  0  0  0  0  0  0  0  0  0
   -5.5543    1.3396    0.0000 C   0  0  0  0  0  0  0  0  0  0  0  0
   -4.2810    0.5467    0.0000 C   0  0  0  0  0  0  0  0  0  0  0  0
   -2.9577    1.2530    0.0000 N   0  0  0  0  0  0  0  0  0  0  0  0
   -1.6844    0.4602    0.0000 C   0  0  0  0  0  0  0  0  0  0  0  0
   -0.3611    1.1665    0.0000 C   0  0  0  0  0  0  0  0  0  0  0  0
    0.9123    0.3737    0.0000 C   0  0  0  0  0  0  0  0  0  0  0  0
    2.2356    1.0800    0.0000 C   0  0  0  0  0  0  0  0  0  0  0  0
    3.5089    0.2872    0.0000 C   0  0  0  0  0  0  0  0  0  0  0  0
    4.8322    0.9935    0.0000 C   0  0  0  0  0  0  0  0  0  0  0  0
    6.1056    0.2006    0.0000 C   0  0  0  0  0  0  0  0  0  0  0  0
    7.4288    0.9070    0.0000 C   0  0  0  0  0  0  0  0  0  0  0  0
    7.4788    2.4061    0.0000 C   0  0  0  0  0  0  0  0  0  0  0  0
    6.2055    3.1990    0.0000 C   0  0  0  0  0  0  0  0  0  0  0  0
    4.8822    2.4926    0.0000 C   0  0  0  0  0  0  0  0  0  0  0  0
    3.4590   -1.2120    0.0000 C   0  0  0  0  0  0  0  0  0  0  0  0
    2.1357   -1.9183    0.0000 C   0  0  0  0  0  0  0  0  0  0  0  0
    2.0857   -3.4175    0.0000 C   0  0  0  0  0  0  0  0  0  0  0  0
    3.3591   -4.2104    0.0000 C   0  0  0  0  0  0  0  0  0  0  0  0
    4.6824   -3.5040    0.0000 C   0  0  0  0  0  0  0  0  0  0  0  0
    4.7323   -2.0049    0.0000 C   0  0  0  0  0  0  0  0  0  0  0  0
   -6.9276   -0.8659    0.0000 C   0  0  0  0  0  0  0  0  0  0  0  0
   -8.2509   -1.5723    0.0000 C   0  0  0  0  0  0  0  0  0  0  0  0
  1  2  2  0
  2  3  1  0
  3  4  2  0
  4  5  1  0
  5  6  1  0
  6  7  1  0
  7  8  1  0
  8  9  1  0
  9 10  1  0
 10 11  1  0
 11 12  1  0
 12 13  1  0
 13 14  2  0
 14 15  1  0
 15 16  2  0
 16 17  1  0
 17 18  2  0
 12 19  1  0
 19 20  2  0
 20 21  1  0
 21 22  2  0
 22 23  1  0
 23 24  2  0
  4 25  1  0
 25 26  2  0
 26  1  1  0
 18 13  1  0
 24 19  1  0
M  END
>  <ChemBL_ID>  (797) 
CHEMBL303263

>  <Compound_Key>  (797) 
16b

>  <Ki>  (797) 
100.0

>  <database>  (797) 
CHEMBL

>  <Assay_ChEMBL_ID>  (797) 
CHEMBL809520

>  <Document_ChEMBL_ID>  (797) 
CHEMBL1147560

$$$$

     RDKit          2D

 26 27  0  0  0  0  0  0  0  0999 V2000
    1.0035   -4.1502    0.0000 C   0  0  0  0  0  0  0  0  0  0  0  0
    1.5472   -2.7522    0.0000 C   0  0  0  0  0  0  0  0  0  0  0  0
    0.6083   -1.5824    0.0000 C   0  0  0  0  0  0  0  0  0  0  0  0
    1.1520   -0.1844    0.0000 C   0  0  0  0  0  0  0  0  0  0  0  0
   -0.2461    0.3593    0.0000 C   0  0  0  0  0  0  0  0  0  0  0  0
   -0.4742    1.8418    0.0000 O   0  0  0  0  0  0  0  0  0  0  0  0
   -1.4159   -0.5796    0.0000 O   0  0  0  0  0  0  0  0  0  0  0  0
   -2.8139   -0.0359    0.0000 C   0  0  0  0  0  0  0  0  0  0  0  0
   -3.9837   -0.9748    0.0000 C   0  0  0  0  0  0  0  0  0  0  0  0
   -5.3817   -0.4312    0.0000 N   0  0  0  0  0  0  0  0  0  0  0  0
   -6.5516   -1.3700    0.0000 C   0  0  0  0  0  0  0  0  0  0  0  0
   -7.9496   -0.8264    0.0000 C   0  0  0  0  0  0  0  0  0  0  0  0
   -5.6099    1.0514    0.0000 C   0  0  0  0  0  0  0  0  0  0  0  0
   -7.0079    1.5950    0.0000 C   0  0  0  0  0  0  0  0  0  0  0  0
    1.6956    1.2136    0.0000 C   0  0  0  0  0  0  0  0  0  0  0  0
    3.1782    1.4418    0.0000 C   0  0  0  0  0  0  0  0  0  0  0  0
    3.7218    2.8398    0.0000 C   0  0  0  0  0  0  0  0  0  0  0  0
    2.7829    4.0096    0.0000 C   0  0  0  0  0  0  0  0  0  0  0  0
    1.3004    3.7815    0.0000 C   0  0  0  0  0  0  0  0  0  0  0  0
    0.7567    2.3835    0.0000 C   0  0  0  0  0  0  0  0  0  0  0  0
    2.5500   -0.7280    0.0000 C   0  0  0  0  0  0  0  0  0  0  0  0
    2.7781   -2.2106    0.0000 C   0  0  0  0  0  0  0  0  0  0  0  0
    4.1762   -2.7542    0.0000 C   0  0  0  0  0  0  0  0  0  0  0  0
    5.3460   -1.8154    0.0000 C   0  0  0  0  0  0  0  0  0  0  0  0
    5.1178   -0.3328    0.0000 C   0  0  0  0  0  0  0  0  0  0  0  0
    3.7198    0.2108    0.0000 C   0  0  0  0  0  0  0  0  0  0  0  0
  1  2  1  0
  2  3  1  0
  3  4  1  0
  4  5  1  0
  5  6  2  0
  5  7  1  0
  7  8  1  0
  8  9  1  0
  9 10  1  0
 10 11  1  0
 11 12  1  0
 10 13  1  0
 13 14  1  0
  4 15  1  0
 15 16  2  0
 16 17  1  0
 17 18  2  0
 18 19  1  0
 19 20  2  0
  4 21  1  0
 21 22  2  0
 22 23  1  0
 23 24  2  0
 24 25  1  0
 25 26  2  0
 20 15  1  0
 26 21  1  0
M  END
>  <ChemBL_ID>  (798) 
CHEMBL282567

>  <Compound_Key>  (798) 
11

>  <Ki>  (798) 
1100.0

>  <database>  (798) 
CHEMBL

>  <Assay_ChEMBL_ID>  (798) 
CHEMBL809520

>  <Document_ChEMBL_ID>  (798) 
CHEMBL1147560

$$$$

     RDKit          2D

 27 29  0  0  0  0  0  0  0  0999 V2000
   -3.6640   -3.7705    0.0000 C   0  0  0  0  0  0  0  0  0  0  0  0
   -2.9542   -2.4491    0.0000 N   0  0  0  0  0  0  0  0  0  0  0  0
   -1.4549   -2.4032    0.0000 C   0  0  0  0  0  0  0  0  0  0  0  0
   -0.7450   -1.0818    0.0000 C   0  0  0  0  0  0  0  0  0  0  0  0
    0.7543   -1.0359    0.0000 C   0  0  0  0  0  0  0  0  0  0  0  0
    1.4642    0.2855    0.0000 C   0  0  0  0  0  0  0  0  0  0  0  0
    2.9635    0.3315    0.0000 C   0  0  0  0  0  0  0  0  0  0  0  0
    3.6733    1.6529    0.0000 C   0  0  0  0  0  0  0  0  0  0  0  0
    5.1726    1.6988    0.0000 C   0  0  0  0  0  0  0  0  0  0  0  0
    5.8825    3.0202    0.0000 C   0  0  0  0  0  0  0  0  0  0  0  0
    5.0931    4.2957    0.0000 C   0  0  0  0  0  0  0  0  0  0  0  0
    3.5938    4.2497    0.0000 C   0  0  0  0  0  0  0  0  0  0  0  0
    2.8839    2.9283    0.0000 C   0  0  0  0  0  0  0  0  0  0  0  0
    3.7529   -0.9440    0.0000 C   0  0  0  0  0  0  0  0  0  0  0  0
    3.0430   -2.2654    0.0000 C   0  0  0  0  0  0  0  0  0  0  0  0
    3.8325   -3.5408    0.0000 C   0  0  0  0  0  0  0  0  0  0  0  0
    5.3317   -3.4949    0.0000 C   0  0  0  0  0  0  0  0  0  0  0  0
    6.0416   -2.1735    0.0000 C   0  0  0  0  0  0  0  0  0  0  0  0
    5.2522   -0.8981    0.0000 C   0  0  0  0  0  0  0  0  0  0  0  0
   -3.7436   -1.1737    0.0000 C   0  0  0  0  0  0  0  0  0  0  0  0
   -5.2429   -1.2196    0.0000 C   0  0  0  0  0  0  0  0  0  0  0  0
   -6.0323    0.0559    0.0000 C   0  0  0  0  0  0  0  0  0  0  0  0
   -5.3225    1.3773    0.0000 C   0  0  0  0  0  0  0  0  0  0  0  0
   -6.1119    2.6527    0.0000 C   0  0  0  0  0  0  0  0  0  0  0  0
   -7.6112    2.6068    0.0000 C   0  0  0  0  0  0  0  0  0  0  0  0
   -8.3210    1.2854    0.0000 C   0  0  0  0  0  0  0  0  0  0  0  0
   -7.5316    0.0099    0.0000 C   0  0  0  0  0  0  0  0  0  0  0  0
  1  2  1  0
  2  3  1  0
  3  4  1  0
  4  5  1  0
  5  6  1  0
  6  7  1  0
  7  8  1  0
  8  9  2  0
  9 10  1  0
 10 11  2  0
 11 12  1  0
 12 13  2  0
  7 14  1  0
 14 15  2  0
 15 16  1  0
 16 17  2  0
 17 18  1  0
 18 19  2  0
  2 20  1  0
 20 21  1  0
 21 22  1  0
 22 23  2  0
 23 24  1  0
 24 25  2  0
 25 26  1  0
 26 27  2  0
 13  8  1  0
 19 14  1  0
 27 22  1  0
M  END
>  <ChemBL_ID>  (799) 
CHEMBL69256

>  <Compound_Key>  (799) 
16a

>  <Ki>  (799) 
32.0

>  <database>  (799) 
CHEMBL

>  <Assay_ChEMBL_ID>  (799) 
CHEMBL809520

>  <Document_ChEMBL_ID>  (799) 
CHEMBL1147560

$$$$

     RDKit          2D

 26 28  0  0  0  0  0  0  0  0999 V2000
   -2.2356   -1.0800    0.0000 C   0  0  0  0  0  0  0  0  0  0  0  0
   -0.9123   -0.3737    0.0000 C   0  0  0  0  0  0  0  0  0  0  0  0
    0.3611   -1.1665    0.0000 C   0  0  0  0  0  0  0  0  0  0  0  0
    1.6844   -0.4602    0.0000 C   0  0  0  0  0  0  0  0  0  0  0  0
    2.9577   -1.2530    0.0000 N   0  0  0  0  0  0  0  0  0  0  0  0
    4.2810   -0.5467    0.0000 C   0  0  0  0  0  0  0  0  0  0  0  0
    5.5543   -1.3396    0.0000 C   0  0  0  0  0  0  0  0  0  0  0  0
    6.8776   -0.6332    0.0000 C   0  0  0  0  0  0  0  0  0  0  0  0
    8.1510   -1.4261    0.0000 C   0  0  0  0  0  0  0  0  0  0  0  0
    9.4743   -0.7198    0.0000 C   0  0  0  0  0  0  0  0  0  0  0  0
    9.5242    0.7794    0.0000 C   0  0  0  0  0  0  0  0  0  0  0  0
    8.2509    1.5723    0.0000 C   0  0  0  0  0  0  0  0  0  0  0  0
    6.9276    0.8659    0.0000 C   0  0  0  0  0  0  0  0  0  0  0  0
   -3.5089   -0.2872    0.0000 C   0  0  0  0  0  0  0  0  0  0  0  0
   -4.8322   -0.9935    0.0000 C   0  0  0  0  0  0  0  0  0  0  0  0
   -6.1056   -0.2006    0.0000 C   0  0  0  0  0  0  0  0  0  0  0  0
   -7.4288   -0.9070    0.0000 C   0  0  0  0  0  0  0  0  0  0  0  0
   -7.4788   -2.4061    0.0000 C   0  0  0  0  0  0  0  0  0  0  0  0
   -6.2055   -3.1990    0.0000 C   0  0  0  0  0  0  0  0  0  0  0  0
   -4.8822   -2.4926    0.0000 C   0  0  0  0  0  0  0  0  0  0  0  0
   -3.4590    1.2120    0.0000 C   0  0  0  0  0  0  0  0  0  0  0  0
   -2.1357    1.9183    0.0000 C   0  0  0  0  0  0  0  0  0  0  0  0
   -2.0857    3.4175    0.0000 C   0  0  0  0  0  0  0  0  0  0  0  0
   -3.3591    4.2104    0.0000 C   0  0  0  0  0  0  0  0  0  0  0  0
   -4.6824    3.5040    0.0000 C   0  0  0  0  0  0  0  0  0  0  0  0
   -4.7323    2.0049    0.0000 C   0  0  0  0  0  0  0  0  0  0  0  0
  1  2  1  0
  2  3  1  0
  3  4  1  0
  4  5  1  0
  5  6  1  0
  6  7  1  0
  7  8  1  0
  8  9  2  0
  9 10  1  0
 10 11  2  0
 11 12  1  0
 12 13  2  0
  1 14  2  0
 14 15  1  0
 15 16  2  0
 16 17  1  0
 17 18  2  0
 18 19  1  0
 19 20  2  0
 14 21  1  0
 21 22  2  0
 22 23  1  0
 23 24  2  0
 24 25  1  0
 25 26  2  0
 13  8  1  0
 20 15  1  0
 26 21  1  0
M  END
>  <ChemBL_ID>  (800) 
CHEMBL304283

>  <Compound_Key>  (800) 
15b

>  <Ki>  (800) 
142.0

>  <database>  (800) 
CHEMBL

>  <Assay_ChEMBL_ID>  (800) 
CHEMBL809520

>  <Document_ChEMBL_ID>  (800) 
CHEMBL1147560

$$$$

     RDKit          2D

 17 18  0  0  0  0  0  0  0  0999 V2000
   -7.1285   -0.7118    0.0000 C   0  0  0  0  0  0  0  0  0  0  0  0
   -5.6832   -0.3102    0.0000 N   0  0  0  0  0  0  0  0  0  0  0  0
   -5.3084    1.1422    0.0000 C   0  0  0  0  0  0  0  0  0  0  0  0
   -3.8631    1.5438    0.0000 C   0  0  0  0  0  0  0  0  0  0  0  0
   -2.7927    0.4929    0.0000 N   0  0  0  0  0  0  0  0  0  0  0  0
   -1.3475    0.8945    0.0000 C   0  0  0  0  0  0  0  0  0  0  0  0
   -0.2771   -0.1563    0.0000 C   0  0  0  0  0  0  0  0  0  0  0  0
    1.1682    0.2453    0.0000 C   0  0  0  0  0  0  0  0  0  0  0  0
    2.2386   -0.8055    0.0000 C   0  0  0  0  0  0  0  0  0  0  0  0
    3.6838   -0.4040    0.0000 C   0  0  0  0  0  0  0  0  0  0  0  0
    4.7542   -1.4548    0.0000 C   0  0  0  0  0  0  0  0  0  0  0  0
    6.1995   -1.0532    0.0000 C   0  0  0  0  0  0  0  0  0  0  0  0
    6.5743    0.3992    0.0000 C   0  0  0  0  0  0  0  0  0  0  0  0
    5.5039    1.4500    0.0000 C   0  0  0  0  0  0  0  0  0  0  0  0
    4.0586    1.0485    0.0000 C   0  0  0  0  0  0  0  0  0  0  0  0
   -3.1676   -0.9595    0.0000 C   0  0  0  0  0  0  0  0  0  0  0  0
   -4.6128   -1.3611    0.0000 C   0  0  0  0  0  0  0  0  0  0  0  0
  1  2  1  0
  2  3  1  0
  3  4  1  0
  4  5  1  0
  5  6  1  0
  6  7  1  0
  7  8  1  0
  8  9  1  0
  9 10  1  0
 10 11  2  0
 11 12  1  0
 12 13  2  0
 13 14  1  0
 14 15  2  0
  5 16  1  0
 16 17  1  0
 17  2  1  0
 15 10  1  0
M  END
>  <ChemBL_ID>  (801) 
CHEMBL71616

>  <Compound_Key>  (801) 
4

>  <Ki>  (801) 
900.0

>  <database>  (801) 
CHEMBL

>  <Assay_ChEMBL_ID>  (801) 
CHEMBL809520

>  <Document_ChEMBL_ID>  (801) 
CHEMBL1147560

$$$$

     RDKit          2D

 32 37  0  0  0  0  0  0  0  0999 V2000
    0.2791    1.7657    0.0000 C   0  0  0  0  0  0  0  0  0  0  0  0
    0.3454    0.2672    0.0000 O   0  0  0  0  0  0  0  0  0  0  0  0
    1.6763   -0.4247    0.0000 C   0  0  0  0  0  0  0  0  0  0  0  0
    1.7426   -1.9232    0.0000 C   0  0  0  0  0  0  0  0  0  0  0  0
    0.4780   -2.7299    0.0000 C   0  0  0  0  0  0  0  0  0  0  0  0
    0.5444   -4.2284    0.0000 O   0  0  0  0  0  0  0  0  0  0  0  0
   -0.8529   -2.0381    0.0000 N   0  0  0  0  0  0  0  0  0  0  0  0
   -2.1175   -2.8448    0.0000 C   0  0  0  0  0  0  0  0  0  0  0  0
   -3.4484   -2.1530    0.0000 C   0  0  0  0  0  0  0  0  0  0  0  0
   -4.7904   -2.8231    0.0000 C   0  0  0  0  0  0  0  0  0  0  0  0
   -5.8424   -1.7538    0.0000 C   0  0  0  0  0  0  0  0  0  0  0  0
   -5.1506   -0.4229    0.0000 C   0  0  0  0  0  0  0  0  0  0  0  0
   -3.6710   -0.6696    0.0000 N   0  0  0  0  0  0  0  0  0  0  0  0
   -2.6018    0.3824    0.0000 C   0  0  0  0  0  0  0  0  0  0  0  0
   -2.9782    1.8344    0.0000 C   0  0  0  0  0  0  0  0  0  0  0  0
   -1.5325    1.4344    0.0000 C   0  0  0  0  0  0  0  0  0  0  0  0
   -0.4633    2.4864    0.0000 C   0  0  0  0  0  0  0  0  0  0  0  0
   -0.8397    3.9384    0.0000 C   0  0  0  0  0  0  0  0  0  0  0  0
   -2.2854    4.3384    0.0000 C   0  0  0  0  0  0  0  0  0  0  0  0
   -3.3547    3.2864    0.0000 C   0  0  0  0  0  0  0  0  0  0  0  0
   -2.2081    1.0517    0.0000 C   0  0  0  0  0  0  0  0  0  0  0  0
   -1.1561   -0.0176    0.0000 C   0  0  0  0  0  0  0  0  0  0  0  0
   -0.0868    1.0344    0.0000 C   0  0  0  0  0  0  0  0  0  0  0  0
    3.0736   -2.6150    0.0000 C   0  0  0  0  0  0  0  0  0  0  0  0
    4.3382   -1.8083    0.0000 C   0  0  0  0  0  0  0  0  0  0  0  0
    5.6691   -2.5001    0.0000 Br  0  0  0  0  0  0  0  0  0  0  0  0
    4.2719   -0.3098    0.0000 C   0  0  0  0  0  0  0  0  0  0  0  0
    5.5365    0.4969    0.0000 C   0  0  0  0  0  0  0  0  0  0  0  0
    5.4701    1.9955    0.0000 C   0  0  0  0  0  0  0  0  0  0  0  0
    4.1392    2.6873    0.0000 C   0  0  0  0  0  0  0  0  0  0  0  0
    2.8746    1.8806    0.0000 C   0  0  0  0  0  0  0  0  0  0  0  0
    2.9409    0.3820    0.0000 C   0  0  0  0  0  0  0  0  0  0  0  0
  1  2  1  0
  2  3  1  0
  3  4  2  0
  4  5  1  0
  5  6  2  0
  5  7  1  0
  7  8  1  0
  9  8  1  1
  9 10  1  0
 10 11  1  0
 11 12  1  0
 12 13  1  0
 13 14  1  0
 14 15  1  0
 15 16  1  0
 16 17  1  0
 17 18  1  0
 18 19  1  0
 19 20  1  0
 19 21  1  0
 21 22  1  0
 22 23  1  0
  4 24  1  0
 24 25  2  0
 25 26  1  0
 25 27  1  0
 27 28  2  0
 28 29  1  0
 29 30  2  0
 30 31  1  0
 31 32  2  0
 32  3  1  0
 13  9  1  0
 22 14  1  0
 32 27  1  0
 20 15  1  0
 23 17  1  0
M  END
>  <ChemBL_ID>  (802) 
CHEMBL301929

>  <Ki>  (802) 
317.0

>  <database>  (802) 
SRSLDB

$$$$

     RDKit          2D

 32 37  0  0  0  0  0  0  0  0999 V2000
    0.2791    1.7657    0.0000 C   0  0  0  0  0  0  0  0  0  0  0  0
    0.3454    0.2672    0.0000 O   0  0  0  0  0  0  0  0  0  0  0  0
    1.6763   -0.4247    0.0000 C   0  0  0  0  0  0  0  0  0  0  0  0
    1.7426   -1.9232    0.0000 C   0  0  0  0  0  0  0  0  0  0  0  0
    0.4780   -2.7299    0.0000 C   0  0  0  0  0  0  0  0  0  0  0  0
    0.5444   -4.2284    0.0000 O   0  0  0  0  0  0  0  0  0  0  0  0
   -0.8529   -2.0381    0.0000 N   0  0  0  0  0  0  0  0  0  0  0  0
   -2.1175   -2.8448    0.0000 C   0  0  0  0  0  0  0  0  0  0  0  0
   -3.4484   -2.1530    0.0000 C   0  0  0  0  0  0  0  0  0  0  0  0
   -4.7904   -2.8231    0.0000 C   0  0  0  0  0  0  0  0  0  0  0  0
   -5.8424   -1.7538    0.0000 C   0  0  0  0  0  0  0  0  0  0  0  0
   -5.1506   -0.4229    0.0000 C   0  0  0  0  0  0  0  0  0  0  0  0
   -3.6710   -0.6696    0.0000 N   0  0  0  0  0  0  0  0  0  0  0  0
   -2.6018    0.3824    0.0000 C   0  0  0  0  0  0  0  0  0  0  0  0
   -2.9782    1.8344    0.0000 C   0  0  0  0  0  0  0  0  0  0  0  0
   -1.5325    1.4344    0.0000 C   0  0  0  0  0  0  0  0  0  0  0  0
   -0.4633    2.4864    0.0000 C   0  0  0  0  0  0  0  0  0  0  0  0
   -0.8397    3.9384    0.0000 C   0  0  0  0  0  0  0  0  0  0  0  0
   -2.2854    4.3384    0.0000 C   0  0  0  0  0  0  0  0  0  0  0  0
   -2.2081    1.0517    0.0000 C   0  0  0  0  0  0  0  0  0  0  0  0
   -1.1561   -0.0176    0.0000 C   0  0  0  0  0  0  0  0  0  0  0  0
   -0.0868    1.0344    0.0000 C   0  0  0  0  0  0  0  0  0  0  0  0
   -3.3547    3.2864    0.0000 C   0  0  0  0  0  0  0  0  0  0  0  0
    3.0736   -2.6150    0.0000 C   0  0  0  0  0  0  0  0  0  0  0  0
    4.3382   -1.8083    0.0000 C   0  0  0  0  0  0  0  0  0  0  0  0
    5.6691   -2.5001    0.0000 Br  0  0  0  0  0  0  0  0  0  0  0  0
    4.2719   -0.3098    0.0000 C   0  0  0  0  0  0  0  0  0  0  0  0
    5.5365    0.4969    0.0000 C   0  0  0  0  0  0  0  0  0  0  0  0
    5.4701    1.9955    0.0000 C   0  0  0  0  0  0  0  0  0  0  0  0
    4.1392    2.6873    0.0000 C   0  0  0  0  0  0  0  0  0  0  0  0
    2.8746    1.8806    0.0000 C   0  0  0  0  0  0  0  0  0  0  0  0
    2.9409    0.3820    0.0000 C   0  0  0  0  0  0  0  0  0  0  0  0
  1  2  1  0
  2  3  1  0
  3  4  2  0
  4  5  1  0
  5  6  2  0
  5  7  1  0
  7  8  1  0
  9  8  1  1
  9 10  1  0
 10 11  1  0
 11 12  1  0
 12 13  1  0
 13 14  1  0
 14 15  1  0
 15 16  1  1
 17 16  1  1
 17 18  1  0
 19 18  1  1
 19 20  1  0
 21 20  1  6
 21 22  1  0
 19 23  1  0
  4 24  1  0
 24 25  2  0
 25 26  1  0
 25 27  1  0
 27 28  2  0
 28 29  1  0
 29 30  2  0
 30 31  1  0
 31 32  2  0
 32  3  1  0
 13  9  1  0
 21 14  1  0
 32 27  1  0
 23 15  1  0
 22 17  1  0
M  END
>  <ChemBL_ID>  (803) 
CHEMBL301929

>  <Compound_Key>  (803) 
31

>  <Ki>  (803) 
317.0

>  <database>  (803) 
CHEMBL

>  <Assay_ChEMBL_ID>  (803) 
CHEMBL808906

>  <Document_ChEMBL_ID>  (803) 
CHEMBL1134687

$$$$

     RDKit          2D

 19 21  0  0  0  0  0  0  0  0999 V2000
   -5.6235    1.9563    0.0000 C   0  0  0  0  0  0  0  0  0  0  0  0
   -4.1876    1.5222    0.0000 C   0  0  0  0  0  0  0  0  0  0  0  0
   -3.8456    0.0618    0.0000 C   0  0  0  0  0  0  0  0  0  0  0  0
   -2.4098   -0.3723    0.0000 N   0  0  0  0  0  0  0  0  0  0  0  0
   -2.0677   -1.8327    0.0000 C   0  0  0  0  0  0  0  0  0  0  0  0
   -0.6319   -2.2668    0.0000 C   0  0  0  0  0  0  0  0  0  0  0  0
    0.4619   -1.2403    0.0000 C   0  0  0  0  0  0  0  0  0  0  0  0
    0.8040   -2.7008    0.0000 C   0  0  0  0  0  0  0  0  0  0  0  0
    1.5557   -0.2138    0.0000 C   0  0  0  0  0  0  0  0  0  0  0  0
    2.9915   -0.6479    0.0000 C   0  0  0  0  0  0  0  0  0  0  0  0
    4.0853    0.3786    0.0000 C   0  0  0  0  0  0  0  0  0  0  0  0
    5.5212   -0.0554    0.0000 O   0  0  0  0  0  0  0  0  0  0  0  0
    3.7433    1.8391    0.0000 C   0  0  0  0  0  0  0  0  0  0  0  0
    2.3075    2.2731    0.0000 C   0  0  0  0  0  0  0  0  0  0  0  0
    1.2137    1.2466    0.0000 C   0  0  0  0  0  0  0  0  0  0  0  0
   -0.2222    1.6807    0.0000 C   0  0  0  0  0  0  0  0  0  0  0  0
   -1.3160    0.6542    0.0000 C   0  0  0  0  0  0  0  0  0  0  0  0
   -0.9739   -0.8063    0.0000 C   0  0  0  0  0  0  0  0  0  0  0  0
   -1.4059   -1.4762    0.0000 C   0  0  0  0  0  0  0  0  0  0  0  0
  1  2  2  0
  2  3  1  0
  3  4  1  0
  4  5  1  0
  5  6  1  0
  6  7  1  0
  7  8  1  6
  7  9  1  0
  9 10  2  0
 10 11  1  0
 11 12  1  0
 11 13  2  0
 13 14  1  0
 14 15  2  0
 15 16  1  0
 16 17  1  0
 17 18  1  0
 18 19  1  1
 17  4  1  0
 18  7  1  0
 15  9  1  0
M  END
>  <ChemBL_ID>  (804) 
CHEMBL277927

>  <Compound_Key>  (804) 
8

>  <Ki>  (804) 
3200.0

>  <database>  (804) 
CHEMBL

>  <Assay_ChEMBL_ID>  (804) 
CHEMBL809859

>  <Document_ChEMBL_ID>  (804) 
CHEMBL1133570

$$$$

     RDKit          2D

 19 21  0  0  0  0  0  0  0  0999 V2000
   -5.6235    1.9563    0.0000 C   0  0  0  0  0  0  0  0  0  0  0  0
   -4.1876    1.5222    0.0000 C   0  0  0  0  0  0  0  0  0  0  0  0
   -3.8456    0.0618    0.0000 C   0  0  0  0  0  0  0  0  0  0  0  0
   -2.4098   -0.3723    0.0000 N   0  0  0  0  0  0  0  0  0  0  0  0
   -2.0677   -1.8327    0.0000 C   0  0  0  0  0  0  0  0  0  0  0  0
   -0.6319   -2.2668    0.0000 C   0  0  0  0  0  0  0  0  0  0  0  0
    0.4619   -1.2403    0.0000 C   0  0  0  0  0  0  0  0  0  0  0  0
    0.8040   -2.7008    0.0000 C   0  0  0  0  0  0  0  0  0  0  0  0
    1.5557   -0.2138    0.0000 C   0  0  0  0  0  0  0  0  0  0  0  0
    2.9915   -0.6479    0.0000 C   0  0  0  0  0  0  0  0  0  0  0  0
    4.0853    0.3786    0.0000 C   0  0  0  0  0  0  0  0  0  0  0  0
    5.5212   -0.0554    0.0000 O   0  0  0  0  0  0  0  0  0  0  0  0
    3.7433    1.8391    0.0000 C   0  0  0  0  0  0  0  0  0  0  0  0
    2.3075    2.2731    0.0000 C   0  0  0  0  0  0  0  0  0  0  0  0
    1.2137    1.2466    0.0000 C   0  0  0  0  0  0  0  0  0  0  0  0
   -0.2222    1.6807    0.0000 C   0  0  0  0  0  0  0  0  0  0  0  0
   -1.3160    0.6542    0.0000 C   0  0  0  0  0  0  0  0  0  0  0  0
   -0.9739   -0.8063    0.0000 C   0  0  0  0  0  0  0  0  0  0  0  0
   -1.4059   -1.4762    0.0000 C   0  0  0  0  0  0  0  0  0  0  0  0
  1  2  2  0
  2  3  1  0
  3  4  1  0
  4  5  1  0
  5  6  1  0
  6  7  1  0
  7  8  1  1
  7  9  1  0
  9 10  2  0
 10 11  1  0
 11 12  1  0
 11 13  2  0
 13 14  1  0
 14 15  2  0
 15 16  1  0
 16 17  1  0
 17 18  1  0
 18 19  1  6
 17  4  1  0
 18  7  1  0
 15  9  1  0
M  END
>  <ChemBL_ID>  (805) 
CHEMBL277927

>  <Compound_Key>  (805) 
21

>  <Ki>  (805) 
1900.0

>  <database>  (805) 
Literature

>  <Assay_ChEMBL_ID>  (805) 
CHEMBL809859

>  <Document_ChEMBL_ID>  (805) 
CHEMBL1133570

$$$$

     RDKit          2D

 24 26  0  0  0  0  0  0  0  0999 V2000
    0.9508    2.0150    0.0000 C   0  0  0  0  0  0  0  0  0  0  0  0
    1.4275    1.3761    0.0000 C   0  0  0  0  0  0  0  0  0  0  0  0
    0.5191    0.1825    0.0000 C   0  0  0  0  0  0  0  0  0  0  0  0
    1.0986   -1.2010    0.0000 C   0  0  0  0  0  0  0  0  0  0  0  0
    2.5865   -1.3910    0.0000 C   0  0  0  0  0  0  0  0  0  0  0  0
    3.1660   -2.7745    0.0000 C   0  0  0  0  0  0  0  0  0  0  0  0
    4.6540   -2.9644    0.0000 C   0  0  0  0  0  0  0  0  0  0  0  0
    5.5624   -1.7708    0.0000 C   0  0  0  0  0  0  0  0  0  0  0  0
    7.0503   -1.9607    0.0000 O   0  0  0  0  0  0  0  0  0  0  0  0
    4.9829   -0.3872    0.0000 C   0  0  0  0  0  0  0  0  0  0  0  0
    3.4950   -0.1973    0.0000 C   0  0  0  0  0  0  0  0  0  0  0  0
    2.9155    1.1862    0.0000 C   0  0  0  0  0  0  0  0  0  0  0  0
    3.8239    2.3798    0.0000 C   0  0  0  0  0  0  0  0  0  0  0  0
    2.3360    2.5698    0.0000 C   0  0  0  0  0  0  0  0  0  0  0  0
    0.8480    2.7597    0.0000 C   0  0  0  0  0  0  0  0  0  0  0  0
   -0.0604    1.5660    0.0000 N   0  0  0  0  0  0  0  0  0  0  0  0
   -1.5483    1.7559    0.0000 C   0  0  0  0  0  0  0  0  0  0  0  0
   -2.4568    0.5623    0.0000 C   0  0  0  0  0  0  0  0  0  0  0  0
   -3.9447    0.7522    0.0000 C   0  0  0  0  0  0  0  0  0  0  0  0
   -4.8531   -0.4414    0.0000 C   0  0  0  0  0  0  0  0  0  0  0  0
   -6.3410   -0.2515    0.0000 C   0  0  0  0  0  0  0  0  0  0  0  0
   -7.2495   -1.4452    0.0000 C   0  0  0  0  0  0  0  0  0  0  0  0
   -8.7374   -1.2552    0.0000 C   0  0  0  0  0  0  0  0  0  0  0  0
  -10.2253   -1.0653    0.0000 N   0  0  0  0  0  0  0  0  0  0  0  0
  2  1  1  6
  2  3  1  0
  3  4  1  0
  4  5  1  0
  5  6  2  0
  6  7  1  0
  7  8  2  0
  8  9  1  0
  8 10  1  0
 10 11  2  0
 11 12  1  0
 12 13  1  1
 12 14  1  0
 14 15  1  0
 15 16  1  0
 16 17  1  0
 17 18  1  0
 18 19  1  0
 19 20  1  0
 20 21  1  0
 21 22  1  0
 22 23  1  0
 23 24  3  0
 12  2  1  0
 16  3  1  0
 11  5  1  0
M  END
>  <ChemBL_ID>  (806) 
CHEMBL2368134

>  <Compound_Key>  (806) 
7

>  <Ki>  (806) 
150.0

>  <database>  (806) 
CHEMBL

>  <Assay_ChEMBL_ID>  (806) 
CHEMBL809859

>  <Document_ChEMBL_ID>  (806) 
CHEMBL1133570

$$$$

     RDKit          2D

 18 20  0  0  0  0  0  0  0  0999 V2000
    4.8122   -1.4250    0.0000 C   0  0  0  0  0  0  0  0  0  0  0  0
    3.3425   -1.1248    0.0000 N   0  0  0  0  0  0  0  0  0  0  0  0
    2.3477   -2.2474    0.0000 C   0  0  0  0  0  0  0  0  0  0  0  0
    0.8780   -1.9472    0.0000 C   0  0  0  0  0  0  0  0  0  0  0  0
    0.4032   -0.5243    0.0000 C   0  0  0  0  0  0  0  0  0  0  0  0
   -1.0664   -0.2241    0.0000 C   0  0  0  0  0  0  0  0  0  0  0  0
   -1.5413    1.1988    0.0000 C   0  0  0  0  0  0  0  0  0  0  0  0
   -3.0109    1.4990    0.0000 C   0  0  0  0  0  0  0  0  0  0  0  0
   -4.0057    0.3763    0.0000 C   0  0  0  0  0  0  0  0  0  0  0  0
   -3.5309   -1.0465    0.0000 C   0  0  0  0  0  0  0  0  0  0  0  0
   -4.5257   -2.1692    0.0000 O   0  0  0  0  0  0  0  0  0  0  0  0
   -2.0613   -1.3467    0.0000 C   0  0  0  0  0  0  0  0  0  0  0  0
   -0.0716    0.8985    0.0000 C   0  0  0  0  0  0  0  0  0  0  0  0
    0.9232    2.0212    0.0000 C   0  0  0  0  0  0  0  0  0  0  0  0
    0.4484    3.4440    0.0000 O   0  0  0  0  0  0  0  0  0  0  0  0
    2.3929    1.7210    0.0000 C   0  0  0  0  0  0  0  0  0  0  0  0
    2.8677    0.2981    0.0000 C   0  0  0  0  0  0  0  0  0  0  0  0
    1.3980    0.5983    0.0000 C   0  0  0  0  0  0  0  0  0  0  0  0
  1  2  1  0
  2  3  1  0
  3  4  1  0
  4  5  1  0
  5  6  1  0
  6  7  2  0
  7  8  1  0
  8  9  2  0
  9 10  1  0
 10 11  1  0
 10 12  2  0
  5 13  1  0
 13 14  1  0
 14 15  2  0
 14 16  1  0
 16 17  1  0
 17 18  1  0
 17  2  1  0
 18  5  1  0
 12  6  1  0
M  END
>  <ChemBL_ID>  (807) 
CHEMBL38791

>  <Compound_Key>  (807) 
(-)-1

>  <Ki>  (807) 
25000.0

>  <database>  (807) 
CHEMBL

>  <Assay_ChEMBL_ID>  (807) 
CHEMBL809526

>  <Document_ChEMBL_ID>  (807) 
CHEMBL1128667

$$$$

     RDKit          2D

 24 26  0  0  0  0  0  0  0  0999 V2000
    0.9508    2.0150    0.0000 C   0  0  0  0  0  0  0  0  0  0  0  0
    1.4275    1.3761    0.0000 C   0  0  0  0  0  0  0  0  0  0  0  0
    0.5191    0.1825    0.0000 C   0  0  0  0  0  0  0  0  0  0  0  0
    1.0986   -1.2010    0.0000 C   0  0  0  0  0  0  0  0  0  0  0  0
    2.5865   -1.3910    0.0000 C   0  0  0  0  0  0  0  0  0  0  0  0
    3.1660   -2.7745    0.0000 C   0  0  0  0  0  0  0  0  0  0  0  0
    4.6540   -2.9644    0.0000 C   0  0  0  0  0  0  0  0  0  0  0  0
    5.5624   -1.7708    0.0000 C   0  0  0  0  0  0  0  0  0  0  0  0
    7.0503   -1.9607    0.0000 O   0  0  0  0  0  0  0  0  0  0  0  0
    4.9829   -0.3872    0.0000 C   0  0  0  0  0  0  0  0  0  0  0  0
    3.4950   -0.1973    0.0000 C   0  0  0  0  0  0  0  0  0  0  0  0
    2.9155    1.1862    0.0000 C   0  0  0  0  0  0  0  0  0  0  0  0
    3.8239    2.3798    0.0000 C   0  0  0  0  0  0  0  0  0  0  0  0
    2.3360    2.5698    0.0000 C   0  0  0  0  0  0  0  0  0  0  0  0
    0.8480    2.7597    0.0000 C   0  0  0  0  0  0  0  0  0  0  0  0
   -0.0604    1.5660    0.0000 N   0  0  0  0  0  0  0  0  0  0  0  0
   -1.5483    1.7559    0.0000 C   0  0  0  0  0  0  0  0  0  0  0  0
   -2.4568    0.5623    0.0000 C   0  0  0  0  0  0  0  0  0  0  0  0
   -3.9447    0.7522    0.0000 C   0  0  0  0  0  0  0  0  0  0  0  0
   -4.8531   -0.4414    0.0000 C   0  0  0  0  0  0  0  0  0  0  0  0
   -6.3410   -0.2515    0.0000 C   0  0  0  0  0  0  0  0  0  0  0  0
   -7.2495   -1.4452    0.0000 C   0  0  0  0  0  0  0  0  0  0  0  0
   -8.7374   -1.2552    0.0000 C   0  0  0  0  0  0  0  0  0  0  0  0
  -10.2253   -1.0653    0.0000 N   0  0  0  0  0  0  0  0  0  0  0  0
  2  1  1  1
  2  3  1  0
  3  4  1  0
  4  5  1  0
  5  6  2  0
  6  7  1  0
  7  8  2  0
  8  9  1  0
  8 10  1  0
 10 11  2  0
 11 12  1  0
 12 13  1  6
 12 14  1  0
 14 15  1  0
 15 16  1  0
 16 17  1  0
 17 18  1  0
 18 19  1  0
 19 20  1  0
 20 21  1  0
 21 22  1  0
 22 23  1  0
 23 24  3  0
 12  2  1  0
 16  3  1  0
 11  5  1  0
M  END
>  <ChemBL_ID>  (808) 
CHEMBL2368134

>  <Compound_Key>  (808) 
26

>  <Ki>  (808) 
12000.0

>  <database>  (808) 
Literature

>  <Assay_ChEMBL_ID>  (808) 
CHEMBL809859

>  <Document_ChEMBL_ID>  (808) 
CHEMBL1133570

$$$$

     RDKit          2D

 20 22  0  0  0  0  0  0  0  0999 V2000
   -1.1687    1.4487    0.0000 C   0  0  0  0  0  0  0  0  0  0  0  0
   -0.5137    0.9944    0.0000 C   0  0  0  0  0  0  0  0  0  0  0  0
   -0.9958   -0.4260    0.0000 C   0  0  0  0  0  0  0  0  0  0  0  0
   -0.0068   -1.5537    0.0000 C   0  0  0  0  0  0  0  0  0  0  0  0
    1.4644   -1.2611    0.0000 C   0  0  0  0  0  0  0  0  0  0  0  0
    2.4534   -2.3889    0.0000 C   0  0  0  0  0  0  0  0  0  0  0  0
    3.9246   -2.0962    0.0000 C   0  0  0  0  0  0  0  0  0  0  0  0
    4.4067   -0.6758    0.0000 C   0  0  0  0  0  0  0  0  0  0  0  0
    5.8779   -0.3832    0.0000 O   0  0  0  0  0  0  0  0  0  0  0  0
    3.4177    0.4519    0.0000 C   0  0  0  0  0  0  0  0  0  0  0  0
    1.9465    0.1593    0.0000 C   0  0  0  0  0  0  0  0  0  0  0  0
    0.9575    1.2870    0.0000 C   0  0  0  0  0  0  0  0  0  0  0  0
    1.4396    2.7074    0.0000 C   0  0  0  0  0  0  0  0  0  0  0  0
   -0.0315    2.4148    0.0000 C   0  0  0  0  0  0  0  0  0  0  0  0
   -1.5027    2.1222    0.0000 C   0  0  0  0  0  0  0  0  0  0  0  0
   -1.9849    0.7018    0.0000 N   0  0  0  0  0  0  0  0  0  0  0  0
   -3.4560    0.4091    0.0000 C   0  0  0  0  0  0  0  0  0  0  0  0
   -3.9382   -1.0113    0.0000 C   0  0  0  0  0  0  0  0  0  0  0  0
   -5.4094   -1.3039    0.0000 C   0  0  0  0  0  0  0  0  0  0  0  0
   -6.8805   -1.5966    0.0000 N   0  0  0  0  0  0  0  0  0  0  0  0
  2  1  1  6
  2  3  1  0
  3  4  1  0
  4  5  1  0
  5  6  2  0
  6  7  1  0
  7  8  2  0
  8  9  1  0
  8 10  1  0
 10 11  2  0
 11 12  1  0
 12 13  1  1
 12 14  1  0
 14 15  1  0
 15 16  1  0
 16 17  1  0
 17 18  1  0
 18 19  1  0
 19 20  3  0
 12  2  1  0
 16  3  1  0
 11  5  1  0
M  END
>  <ChemBL_ID>  (809) 
CHEMBL2368133

>  <Compound_Key>  (809) 
3

>  <Ki>  (809) 
51000.0

>  <database>  (809) 
CHEMBL

>  <Assay_ChEMBL_ID>  (809) 
CHEMBL809859

>  <Document_ChEMBL_ID>  (809) 
CHEMBL1133570

$$$$

     RDKit          2D

 25 28  0  0  0  0  0  0  0  0999 V2000
   -8.0867    1.2353    0.0000 C   0  0  0  0  0  0  0  0  0  0  0  0
   -6.9250    0.2864    0.0000 N   0  0  0  0  0  0  0  0  0  0  0  0
   -7.0099   -1.2112    0.0000 C   0  0  0  0  0  0  0  0  0  0  0  0
   -8.2713   -2.0228    0.0000 O   0  0  0  0  0  0  0  0  0  0  0  0
   -5.6118   -1.7547    0.0000 S   0  0  0  0  0  0  0  0  0  0  0  0
   -4.6629   -0.5929    0.0000 C   0  0  0  0  0  0  0  0  0  0  0  0
   -3.1646   -0.5208    0.0000 C   0  0  0  0  0  0  0  0  0  0  0  0
   -2.4780    0.8129    0.0000 C   0  0  0  0  0  0  0  0  0  0  0  0
   -0.9797    0.8850    0.0000 C   0  0  0  0  0  0  0  0  0  0  0  0
   -0.1681   -0.3764    0.0000 C   0  0  0  0  0  0  0  0  0  0  0  0
    1.3302   -0.3042    0.0000 N   0  0  0  0  0  0  0  0  0  0  0  0
    2.1418   -1.5657    0.0000 C   0  0  0  0  0  0  0  0  0  0  0  0
    3.6401   -1.4935    0.0000 C   0  0  0  0  0  0  0  0  0  0  0  0
    4.3267   -0.1599    0.0000 C   0  0  0  0  0  0  0  0  0  0  0  0
    5.8250   -0.0877    0.0000 C   0  0  0  0  0  0  0  0  0  0  0  0
    6.6366   -1.3492    0.0000 C   0  0  0  0  0  0  0  0  0  0  0  0
    8.1349   -1.2770    0.0000 C   0  0  0  0  0  0  0  0  0  0  0  0
    8.8215    0.0566    0.0000 C   0  0  0  0  0  0  0  0  0  0  0  0
    8.0099    1.3181    0.0000 C   0  0  0  0  0  0  0  0  0  0  0  0
    6.5116    1.2459    0.0000 C   0  0  0  0  0  0  0  0  0  0  0  0
    3.5151    1.1016    0.0000 C   0  0  0  0  0  0  0  0  0  0  0  0
    2.0168    1.0294    0.0000 C   0  0  0  0  0  0  0  0  0  0  0  0
   -3.2896    2.0743    0.0000 C   0  0  0  0  0  0  0  0  0  0  0  0
   -4.7879    2.0021    0.0000 C   0  0  0  0  0  0  0  0  0  0  0  0
   -5.4745    0.6685    0.0000 C   0  0  0  0  0  0  0  0  0  0  0  0
  1  2  1  0
  2  3  1  0
  3  4  2  0
  3  5  1  0
  5  6  1  0
  6  7  2  0
  7  8  1  0
  8  9  1  0
  9 10  1  0
 10 11  1  0
 11 12  1  0
 12 13  1  0
 13 14  1  0
 14 15  1  0
 15 16  2  0
 16 17  1  0
 17 18  2  0
 18 19  1  0
 19 20  2  0
 14 21  1  0
 21 22  1  0
  8 23  2  0
 23 24  1  0
 24 25  2  0
 25  2  1  0
 25  6  1  0
 22 11  1  0
 20 15  1  0
M  END
>  <ChemBL_ID>  (810) 
CHEMBL415985

>  <Compound_Key>  (810) 
6

>  <Ki>  (810) 
2.0

>  <database>  (810) 
CHEMBL

>  <Assay_ChEMBL_ID>  (810) 
CHEMBL808286

>  <Document_ChEMBL_ID>  (810) 
CHEMBL1135280

$$$$

     RDKit          2D

 20 22  0  0  0  0  0  0  0  0999 V2000
   -1.1687    1.4487    0.0000 C   0  0  0  0  0  0  0  0  0  0  0  0
   -0.5137    0.9944    0.0000 C   0  0  0  0  0  0  0  0  0  0  0  0
   -0.9958   -0.4260    0.0000 C   0  0  0  0  0  0  0  0  0  0  0  0
   -0.0068   -1.5537    0.0000 C   0  0  0  0  0  0  0  0  0  0  0  0
    1.4644   -1.2611    0.0000 C   0  0  0  0  0  0  0  0  0  0  0  0
    2.4534   -2.3889    0.0000 C   0  0  0  0  0  0  0  0  0  0  0  0
    3.9246   -2.0962    0.0000 C   0  0  0  0  0  0  0  0  0  0  0  0
    4.4067   -0.6758    0.0000 C   0  0  0  0  0  0  0  0  0  0  0  0
    5.8779   -0.3832    0.0000 O   0  0  0  0  0  0  0  0  0  0  0  0
    3.4177    0.4519    0.0000 C   0  0  0  0  0  0  0  0  0  0  0  0
    1.9465    0.1593    0.0000 C   0  0  0  0  0  0  0  0  0  0  0  0
    0.9575    1.2870    0.0000 C   0  0  0  0  0  0  0  0  0  0  0  0
    1.4396    2.7074    0.0000 C   0  0  0  0  0  0  0  0  0  0  0  0
   -0.0315    2.4148    0.0000 C   0  0  0  0  0  0  0  0  0  0  0  0
   -1.5027    2.1222    0.0000 C   0  0  0  0  0  0  0  0  0  0  0  0
   -1.9849    0.7018    0.0000 N   0  0  0  0  0  0  0  0  0  0  0  0
   -3.4560    0.4091    0.0000 C   0  0  0  0  0  0  0  0  0  0  0  0
   -3.9382   -1.0113    0.0000 C   0  0  0  0  0  0  0  0  0  0  0  0
   -5.4094   -1.3039    0.0000 C   0  0  0  0  0  0  0  0  0  0  0  0
   -6.8805   -1.5966    0.0000 N   0  0  0  0  0  0  0  0  0  0  0  0
  2  1  1  1
  2  3  1  0
  3  4  1  0
  4  5  1  0
  5  6  2  0
  6  7  1  0
  7  8  2  0
  8  9  1  0
  8 10  1  0
 10 11  2  0
 11 12  1  0
 12 13  1  6
 12 14  1  0
 14 15  1  0
 15 16  1  0
 16 17  1  0
 17 18  1  0
 18 19  1  0
 19 20  3  0
 12  2  1  0
 16  3  1  0
 11  5  1  0
M  END
>  <ChemBL_ID>  (811) 
CHEMBL2368133

>  <Compound_Key>  (811) 
18

>  <Ki>  (811) 
34000.0

>  <database>  (811) 
Literature

>  <Assay_ChEMBL_ID>  (811) 
CHEMBL809859

>  <Document_ChEMBL_ID>  (811) 
CHEMBL1133570

$$$$

     RDKit          2D

 21 23  0  0  0  0  0  0  0  0999 V2000
   -0.6131    1.8291    0.0000 C   0  0  0  0  0  0  0  0  0  0  0  0
   -0.0439    1.2710    0.0000 C   0  0  0  0  0  0  0  0  0  0  0  0
   -0.7583   -0.0480    0.0000 C   0  0  0  0  0  0  0  0  0  0  0  0
    0.0268   -1.3261    0.0000 C   0  0  0  0  0  0  0  0  0  0  0  0
    1.5262   -1.2853    0.0000 C   0  0  0  0  0  0  0  0  0  0  0  0
    2.3113   -2.5634    0.0000 C   0  0  0  0  0  0  0  0  0  0  0  0
    3.8107   -2.5226    0.0000 C   0  0  0  0  0  0  0  0  0  0  0  0
    4.5251   -1.2037    0.0000 C   0  0  0  0  0  0  0  0  0  0  0  0
    6.0245   -1.1628    0.0000 O   0  0  0  0  0  0  0  0  0  0  0  0
    3.7400    0.0745    0.0000 C   0  0  0  0  0  0  0  0  0  0  0  0
    2.2406    0.0337    0.0000 C   0  0  0  0  0  0  0  0  0  0  0  0
    1.4555    1.3118    0.0000 C   0  0  0  0  0  0  0  0  0  0  0  0
    2.1699    2.6308    0.0000 C   0  0  0  0  0  0  0  0  0  0  0  0
    0.6704    2.5900    0.0000 C   0  0  0  0  0  0  0  0  0  0  0  0
   -0.8290    2.5492    0.0000 C   0  0  0  0  0  0  0  0  0  0  0  0
   -1.5434    1.2302    0.0000 N   0  0  0  0  0  0  0  0  0  0  0  0
   -3.0428    1.1894    0.0000 C   0  0  0  0  0  0  0  0  0  0  0  0
   -3.7572   -0.1296    0.0000 C   0  0  0  0  0  0  0  0  0  0  0  0
   -5.2567   -0.1704    0.0000 C   0  0  0  0  0  0  0  0  0  0  0  0
   -5.9710   -1.4894    0.0000 C   0  0  0  0  0  0  0  0  0  0  0  0
   -6.6854   -2.8083    0.0000 N   0  0  0  0  0  0  0  0  0  0  0  0
  2  1  1  6
  2  3  1  0
  3  4  1  0
  4  5  1  0
  5  6  2  0
  6  7  1  0
  7  8  2  0
  8  9  1  0
  8 10  1  0
 10 11  2  0
 11 12  1  0
 12 13  1  1
 12 14  1  0
 14 15  1  0
 15 16  1  0
 16 17  1  0
 17 18  1  0
 18 19  1  0
 19 20  1  0
 20 21  3  0
 12  2  1  0
 16  3  1  0
 11  5  1  0
M  END
>  <ChemBL_ID>  (812) 
CHEMBL2368132

>  <Compound_Key>  (812) 
4

>  <Ki>  (812) 
8400.0

>  <database>  (812) 
CHEMBL

>  <Assay_ChEMBL_ID>  (812) 
CHEMBL809859

>  <Document_ChEMBL_ID>  (812) 
CHEMBL1133570

$$$$

     RDKit          2D

 21 23  0  0  0  0  0  0  0  0999 V2000
   -0.6131    1.8291    0.0000 C   0  0  0  0  0  0  0  0  0  0  0  0
   -0.0439    1.2710    0.0000 C   0  0  0  0  0  0  0  0  0  0  0  0
   -0.7583   -0.0480    0.0000 C   0  0  0  0  0  0  0  0  0  0  0  0
    0.0268   -1.3261    0.0000 C   0  0  0  0  0  0  0  0  0  0  0  0
    1.5262   -1.2853    0.0000 C   0  0  0  0  0  0  0  0  0  0  0  0
    2.3113   -2.5634    0.0000 C   0  0  0  0  0  0  0  0  0  0  0  0
    3.8107   -2.5226    0.0000 C   0  0  0  0  0  0  0  0  0  0  0  0
    4.5251   -1.2037    0.0000 C   0  0  0  0  0  0  0  0  0  0  0  0
    6.0245   -1.1628    0.0000 O   0  0  0  0  0  0  0  0  0  0  0  0
    3.7400    0.0745    0.0000 C   0  0  0  0  0  0  0  0  0  0  0  0
    2.2406    0.0337    0.0000 C   0  0  0  0  0  0  0  0  0  0  0  0
    1.4555    1.3118    0.0000 C   0  0  0  0  0  0  0  0  0  0  0  0
    2.1699    2.6308    0.0000 C   0  0  0  0  0  0  0  0  0  0  0  0
    0.6704    2.5900    0.0000 C   0  0  0  0  0  0  0  0  0  0  0  0
   -0.8290    2.5492    0.0000 C   0  0  0  0  0  0  0  0  0  0  0  0
   -1.5434    1.2302    0.0000 N   0  0  0  0  0  0  0  0  0  0  0  0
   -3.0428    1.1894    0.0000 C   0  0  0  0  0  0  0  0  0  0  0  0
   -3.7572   -0.1296    0.0000 C   0  0  0  0  0  0  0  0  0  0  0  0
   -5.2567   -0.1704    0.0000 C   0  0  0  0  0  0  0  0  0  0  0  0
   -5.9710   -1.4894    0.0000 C   0  0  0  0  0  0  0  0  0  0  0  0
   -6.6854   -2.8083    0.0000 N   0  0  0  0  0  0  0  0  0  0  0  0
  2  1  1  1
  2  3  1  0
  3  4  1  0
  4  5  1  0
  5  6  2  0
  6  7  1  0
  7  8  2  0
  8  9  1  0
  8 10  1  0
 10 11  2  0
 11 12  1  0
 12 13  1  6
 12 14  1  0
 14 15  1  0
 15 16  1  0
 16 17  1  0
 17 18  1  0
 18 19  1  0
 19 20  1  0
 20 21  3  0
 12  2  1  0
 16  3  1  0
 11  5  1  0
M  END
>  <ChemBL_ID>  (813) 
CHEMBL2368132

>  <Compound_Key>  (813) 
27

>  <Ki>  (813) 
15000.0

>  <database>  (813) 
Literature

>  <Assay_ChEMBL_ID>  (813) 
CHEMBL809859

>  <Document_ChEMBL_ID>  (813) 
CHEMBL1133570

$$$$

     RDKit          2D

 23 25  0  0  0  0  0  0  0  0999 V2000
    0.4799    2.0291    0.0000 C   0  0  0  0  0  0  0  0  0  0  0  0
    0.9570    1.3905    0.0000 C   0  0  0  0  0  0  0  0  0  0  0  0
    0.0492    0.1964    0.0000 C   0  0  0  0  0  0  0  0  0  0  0  0
    0.6295   -1.1869    0.0000 C   0  0  0  0  0  0  0  0  0  0  0  0
    2.1176   -1.3759    0.0000 C   0  0  0  0  0  0  0  0  0  0  0  0
    2.6978   -2.7591    0.0000 C   0  0  0  0  0  0  0  0  0  0  0  0
    4.1859   -2.9482    0.0000 C   0  0  0  0  0  0  0  0  0  0  0  0
    5.0936   -1.7540    0.0000 C   0  0  0  0  0  0  0  0  0  0  0  0
    6.5817   -1.9431    0.0000 O   0  0  0  0  0  0  0  0  0  0  0  0
    4.5133   -0.3708    0.0000 C   0  0  0  0  0  0  0  0  0  0  0  0
    3.0253   -0.1817    0.0000 C   0  0  0  0  0  0  0  0  0  0  0  0
    2.4450    1.2015    0.0000 C   0  0  0  0  0  0  0  0  0  0  0  0
    3.3527    2.3956    0.0000 C   0  0  0  0  0  0  0  0  0  0  0  0
    1.8647    2.5847    0.0000 C   0  0  0  0  0  0  0  0  0  0  0  0
    0.3767    2.7737    0.0000 C   0  0  0  0  0  0  0  0  0  0  0  0
   -0.5311    1.5796    0.0000 N   0  0  0  0  0  0  0  0  0  0  0  0
   -2.0191    1.7686    0.0000 C   0  0  0  0  0  0  0  0  0  0  0  0
   -2.9269    0.5745    0.0000 C   0  0  0  0  0  0  0  0  0  0  0  0
   -4.4149    0.7635    0.0000 C   0  0  0  0  0  0  0  0  0  0  0  0
   -5.3226   -0.4307    0.0000 C   0  0  0  0  0  0  0  0  0  0  0  0
   -6.8107   -0.2416    0.0000 C   0  0  0  0  0  0  0  0  0  0  0  0
   -7.7184   -1.4358    0.0000 C   0  0  0  0  0  0  0  0  0  0  0  0
   -8.6262   -2.6299    0.0000 N   0  0  0  0  0  0  0  0  0  0  0  0
  2  1  1  6
  2  3  1  0
  3  4  1  0
  4  5  1  0
  5  6  2  0
  6  7  1  0
  7  8  2  0
  8  9  1  0
  8 10  1  0
 10 11  2  0
 11 12  1  0
 12 13  1  1
 12 14  1  0
 14 15  1  0
 15 16  1  0
 16 17  1  0
 17 18  1  0
 18 19  1  0
 19 20  1  0
 20 21  1  0
 21 22  1  0
 22 23  3  0
 12  2  1  0
 16  3  1  0
 11  5  1  0
M  END
>  <ChemBL_ID>  (814) 
CHEMBL2368131

>  <Compound_Key>  (814) 
6

>  <Ki>  (814) 
380.0

>  <database>  (814) 
CHEMBL

>  <Assay_ChEMBL_ID>  (814) 
CHEMBL809859

>  <Document_ChEMBL_ID>  (814) 
CHEMBL1133570

$$$$

     RDKit          2D

 22 25  0  0  0  0  0  0  0  0999 V2000
    3.2921   -2.7824    0.0000 C   0  0  0  0  0  0  0  0  0  0  0  0
    1.9431   -2.1265    0.0000 N   0  0  0  0  0  0  0  0  0  0  0  0
    0.7006   -2.9669    0.0000 C   0  0  0  0  0  0  0  0  0  0  0  0
   -0.6484   -2.3110    0.0000 C   0  0  0  0  0  0  0  0  0  0  0  0
   -0.7549   -0.8148    0.0000 C   0  0  0  0  0  0  0  0  0  0  0  0
   -2.1039   -0.1589    0.0000 C   0  0  0  0  0  0  0  0  0  0  0  0
   -2.2104    1.3373    0.0000 C   0  0  0  0  0  0  0  0  0  0  0  0
   -3.5594    1.9932    0.0000 C   0  0  0  0  0  0  0  0  0  0  0  0
   -4.8019    1.1528    0.0000 C   0  0  0  0  0  0  0  0  0  0  0  0
   -4.6954   -0.3434    0.0000 C   0  0  0  0  0  0  0  0  0  0  0  0
   -5.9379   -1.1837    0.0000 O   0  0  0  0  0  0  0  0  0  0  0  0
   -3.3464   -0.9993    0.0000 C   0  0  0  0  0  0  0  0  0  0  0  0
   -0.8614    0.6814    0.0000 C   0  0  0  0  0  0  0  0  0  0  0  0
    0.3811    1.5218    0.0000 C   0  0  0  0  0  0  0  0  0  0  0  0
    0.2746    3.0180    0.0000 O   0  0  0  0  0  0  0  0  0  0  0  0
    1.7301    0.8659    0.0000 C   0  0  0  0  0  0  0  0  0  0  0  0
    2.9726    1.7062    0.0000 C   0  0  0  0  0  0  0  0  0  0  0  0
    4.3216    1.0504    0.0000 C   0  0  0  0  0  0  0  0  0  0  0  0
    5.8179    1.1569    0.0000 C   0  0  0  0  0  0  0  0  0  0  0  0
    5.1620   -0.1922    0.0000 C   0  0  0  0  0  0  0  0  0  0  0  0
    1.8366   -0.6303    0.0000 C   0  0  0  0  0  0  0  0  0  0  0  0
    0.4876    0.0256    0.0000 C   0  0  0  0  0  0  0  0  0  0  0  0
  1  2  1  0
  2  3  1  0
  3  4  1  0
  4  5  1  0
  5  6  1  0
  6  7  2  0
  7  8  1  0
  8  9  2  0
  9 10  1  0
 10 11  1  0
 10 12  2  0
  5 13  1  0
 13 14  1  0
 14 15  2  0
 14 16  1  0
 16 17  2  0
 17 18  1  0
 18 19  1  0
 19 20  1  0
 16 21  1  0
 21 22  1  0
 21  2  1  0
 22  5  1  0
 12  6  1  0
 20 18  1  0
M  END
>  <ChemBL_ID>  (815) 
CHEMBL358527

>  <Compound_Key>  (815) 
11

>  <Ki>  (815) 
356.0

>  <database>  (815) 
CHEMBL

>  <Assay_ChEMBL_ID>  (815) 
CHEMBL809526

>  <Document_ChEMBL_ID>  (815) 
CHEMBL1128667

$$$$

     RDKit          2D

 23 25  0  0  0  0  0  0  0  0999 V2000
    0.4799    2.0291    0.0000 C   0  0  0  0  0  0  0  0  0  0  0  0
    0.9570    1.3905    0.0000 C   0  0  0  0  0  0  0  0  0  0  0  0
    0.0492    0.1964    0.0000 C   0  0  0  0  0  0  0  0  0  0  0  0
    0.6295   -1.1869    0.0000 C   0  0  0  0  0  0  0  0  0  0  0  0
    2.1176   -1.3759    0.0000 C   0  0  0  0  0  0  0  0  0  0  0  0
    2.6978   -2.7591    0.0000 C   0  0  0  0  0  0  0  0  0  0  0  0
    4.1859   -2.9482    0.0000 C   0  0  0  0  0  0  0  0  0  0  0  0
    5.0936   -1.7540    0.0000 C   0  0  0  0  0  0  0  0  0  0  0  0
    6.5817   -1.9431    0.0000 O   0  0  0  0  0  0  0  0  0  0  0  0
    4.5133   -0.3708    0.0000 C   0  0  0  0  0  0  0  0  0  0  0  0
    3.0253   -0.1817    0.0000 C   0  0  0  0  0  0  0  0  0  0  0  0
    2.4450    1.2015    0.0000 C   0  0  0  0  0  0  0  0  0  0  0  0
    3.3527    2.3956    0.0000 C   0  0  0  0  0  0  0  0  0  0  0  0
    1.8647    2.5847    0.0000 C   0  0  0  0  0  0  0  0  0  0  0  0
    0.3767    2.7737    0.0000 C   0  0  0  0  0  0  0  0  0  0  0  0
   -0.5311    1.5796    0.0000 N   0  0  0  0  0  0  0  0  0  0  0  0
   -2.0191    1.7686    0.0000 C   0  0  0  0  0  0  0  0  0  0  0  0
   -2.9269    0.5745    0.0000 C   0  0  0  0  0  0  0  0  0  0  0  0
   -4.4149    0.7635    0.0000 C   0  0  0  0  0  0  0  0  0  0  0  0
   -5.3226   -0.4307    0.0000 C   0  0  0  0  0  0  0  0  0  0  0  0
   -6.8107   -0.2416    0.0000 C   0  0  0  0  0  0  0  0  0  0  0  0
   -7.7184   -1.4358    0.0000 C   0  0  0  0  0  0  0  0  0  0  0  0
   -8.6262   -2.6299    0.0000 N   0  0  0  0  0  0  0  0  0  0  0  0
  2  1  1  1
  2  3  1  0
  3  4  1  0
  4  5  1  0
  5  6  2  0
  6  7  1  0
  7  8  2  0
  8  9  1  0
  8 10  1  0
 10 11  2  0
 11 12  1  0
 12 13  1  6
 12 14  1  0
 14 15  1  0
 15 16  1  0
 16 17  1  0
 17 18  1  0
 18 19  1  0
 19 20  1  0
 20 21  1  0
 21 22  1  0
 22 23  3  0
 12  2  1  0
 16  3  1  0
 11  5  1  0
M  END
>  <ChemBL_ID>  (816) 
CHEMBL2368131

>  <Compound_Key>  (816) 
20

>  <Ki>  (816) 
5700.0

>  <database>  (816) 
Literature

>  <Assay_ChEMBL_ID>  (816) 
CHEMBL809859

>  <Document_ChEMBL_ID>  (816) 
CHEMBL1133570

$$$$

     RDKit          2D

 21 23  0  0  0  0  0  0  0  0999 V2000
   -7.3896    1.8548    0.0000 C   0  0  0  0  0  0  0  0  0  0  0  0
   -5.8924    1.7627    0.0000 C   0  0  0  0  0  0  0  0  0  0  0  0
   -5.2236    0.4200    0.0000 C   0  0  0  0  0  0  0  0  0  0  0  0
   -3.7264    0.3279    0.0000 C   0  0  0  0  0  0  0  0  0  0  0  0
   -3.0577   -1.0148    0.0000 C   0  0  0  0  0  0  0  0  0  0  0  0
   -1.5605   -1.1069    0.0000 N   0  0  0  0  0  0  0  0  0  0  0  0
   -0.8917   -2.4496    0.0000 C   0  0  0  0  0  0  0  0  0  0  0  0
    0.6055   -2.5417    0.0000 C   0  0  0  0  0  0  0  0  0  0  0  0
    1.4338   -1.2912    0.0000 C   0  0  0  0  0  0  0  0  0  0  0  0
    2.1026   -2.6339    0.0000 C   0  0  0  0  0  0  0  0  0  0  0  0
    2.2622   -0.0407    0.0000 C   0  0  0  0  0  0  0  0  0  0  0  0
    3.7594   -0.1328    0.0000 C   0  0  0  0  0  0  0  0  0  0  0  0
    4.5878    1.1177    0.0000 C   0  0  0  0  0  0  0  0  0  0  0  0
    6.0850    1.0255    0.0000 O   0  0  0  0  0  0  0  0  0  0  0  0
    3.9190    2.4603    0.0000 C   0  0  0  0  0  0  0  0  0  0  0  0
    2.4218    2.5525    0.0000 C   0  0  0  0  0  0  0  0  0  0  0  0
    1.5935    1.3020    0.0000 C   0  0  0  0  0  0  0  0  0  0  0  0
    0.0963    1.3941    0.0000 C   0  0  0  0  0  0  0  0  0  0  0  0
   -0.7321    0.1436    0.0000 C   0  0  0  0  0  0  0  0  0  0  0  0
   -0.0633   -1.1991    0.0000 C   0  0  0  0  0  0  0  0  0  0  0  0
   -0.3297   -1.9504    0.0000 C   0  0  0  0  0  0  0  0  0  0  0  0
  1  2  2  0
  2  3  1  0
  3  4  1  0
  4  5  1  0
  5  6  1  0
  6  7  1  0
  7  8  1  0
  8  9  1  0
  9 10  1  6
  9 11  1  0
 11 12  2  0
 12 13  1  0
 13 14  1  0
 13 15  2  0
 15 16  1  0
 16 17  2  0
 17 18  1  0
 18 19  1  0
 19 20  1  0
 20 21  1  1
 19  6  1  0
 20  9  1  0
 17 11  1  0
M  END
>  <ChemBL_ID>  (817) 
CHEMBL2368130

>  <Compound_Key>  (817) 
10

>  <Ki>  (817) 
180.0

>  <database>  (817) 
CHEMBL

>  <Assay_ChEMBL_ID>  (817) 
CHEMBL809859

>  <Document_ChEMBL_ID>  (817) 
CHEMBL1133570

$$$$

     RDKit          2D

 21 23  0  0  0  0  0  0  0  0999 V2000
   -7.3896    1.8548    0.0000 C   0  0  0  0  0  0  0  0  0  0  0  0
   -5.8924    1.7627    0.0000 C   0  0  0  0  0  0  0  0  0  0  0  0
   -5.2236    0.4200    0.0000 C   0  0  0  0  0  0  0  0  0  0  0  0
   -3.7264    0.3279    0.0000 C   0  0  0  0  0  0  0  0  0  0  0  0
   -3.0577   -1.0148    0.0000 C   0  0  0  0  0  0  0  0  0  0  0  0
   -1.5605   -1.1069    0.0000 N   0  0  0  0  0  0  0  0  0  0  0  0
   -0.8917   -2.4496    0.0000 C   0  0  0  0  0  0  0  0  0  0  0  0
    0.6055   -2.5417    0.0000 C   0  0  0  0  0  0  0  0  0  0  0  0
    1.4338   -1.2912    0.0000 C   0  0  0  0  0  0  0  0  0  0  0  0
    2.1026   -2.6339    0.0000 C   0  0  0  0  0  0  0  0  0  0  0  0
    2.2622   -0.0407    0.0000 C   0  0  0  0  0  0  0  0  0  0  0  0
    3.7594   -0.1328    0.0000 C   0  0  0  0  0  0  0  0  0  0  0  0
    4.5878    1.1177    0.0000 C   0  0  0  0  0  0  0  0  0  0  0  0
    6.0850    1.0255    0.0000 O   0  0  0  0  0  0  0  0  0  0  0  0
    3.9190    2.4603    0.0000 C   0  0  0  0  0  0  0  0  0  0  0  0
    2.4218    2.5525    0.0000 C   0  0  0  0  0  0  0  0  0  0  0  0
    1.5935    1.3020    0.0000 C   0  0  0  0  0  0  0  0  0  0  0  0
    0.0963    1.3941    0.0000 C   0  0  0  0  0  0  0  0  0  0  0  0
   -0.7321    0.1436    0.0000 C   0  0  0  0  0  0  0  0  0  0  0  0
   -0.0633   -1.1991    0.0000 C   0  0  0  0  0  0  0  0  0  0  0  0
   -0.3297   -1.9504    0.0000 C   0  0  0  0  0  0  0  0  0  0  0  0
  1  2  2  0
  2  3  1  0
  3  4  1  0
  4  5  1  0
  5  6  1  0
  6  7  1  0
  7  8  1  0
  8  9  1  0
  9 10  1  1
  9 11  1  0
 11 12  2  0
 12 13  1  0
 13 14  1  0
 13 15  2  0
 15 16  1  0
 16 17  2  0
 17 18  1  0
 18 19  1  0
 19 20  1  0
 20 21  1  6
 19  6  1  0
 20  9  1  0
 17 11  1  0
M  END
>  <ChemBL_ID>  (818) 
CHEMBL2368130

>  <Compound_Key>  (818) 
17

>  <Ki>  (818) 
100000.0

>  <database>  (818) 
Literature

>  <Assay_ChEMBL_ID>  (818) 
CHEMBL809859

>  <Document_ChEMBL_ID>  (818) 
CHEMBL1133570

$$$$

     RDKit          2D

 21 23  0  0  0  0  0  0  0  0999 V2000
   -6.7095    2.7979    0.0000 C   0  0  0  0  0  0  0  0  0  0  0  0
   -5.9911    1.4811    0.0000 C   0  0  0  0  0  0  0  0  0  0  0  0
   -5.2728    0.1642    0.0000 C   0  0  0  0  0  0  0  0  0  0  0  0
   -3.7733    0.1279    0.0000 C   0  0  0  0  0  0  0  0  0  0  0  0
   -3.0549   -1.1889    0.0000 C   0  0  0  0  0  0  0  0  0  0  0  0
   -1.5554   -1.2252    0.0000 N   0  0  0  0  0  0  0  0  0  0  0  0
   -0.8371   -2.5421    0.0000 C   0  0  0  0  0  0  0  0  0  0  0  0
    0.6625   -2.5784    0.0000 C   0  0  0  0  0  0  0  0  0  0  0  0
    1.4437   -1.2979    0.0000 C   0  0  0  0  0  0  0  0  0  0  0  0
    2.1621   -2.6147    0.0000 C   0  0  0  0  0  0  0  0  0  0  0  0
    2.2250   -0.0174    0.0000 C   0  0  0  0  0  0  0  0  0  0  0  0
    3.7245   -0.0537    0.0000 C   0  0  0  0  0  0  0  0  0  0  0  0
    4.5058    1.2268    0.0000 C   0  0  0  0  0  0  0  0  0  0  0  0
    6.0053    1.1904    0.0000 O   0  0  0  0  0  0  0  0  0  0  0  0
    3.7875    2.5436    0.0000 C   0  0  0  0  0  0  0  0  0  0  0  0
    2.2879    2.5799    0.0000 C   0  0  0  0  0  0  0  0  0  0  0  0
    1.5067    1.2994    0.0000 C   0  0  0  0  0  0  0  0  0  0  0  0
    0.0071    1.3357    0.0000 C   0  0  0  0  0  0  0  0  0  0  0  0
   -0.7741    0.0553    0.0000 C   0  0  0  0  0  0  0  0  0  0  0  0
   -0.0558   -1.2616    0.0000 C   0  0  0  0  0  0  0  0  0  0  0  0
   -0.2940   -2.0223    0.0000 C   0  0  0  0  0  0  0  0  0  0  0  0
  1  2  3  0
  2  3  1  0
  3  4  1  0
  4  5  1  0
  5  6  1  0
  6  7  1  0
  7  8  1  0
  8  9  1  0
  9 10  1  6
  9 11  1  0
 11 12  2  0
 12 13  1  0
 13 14  1  0
 13 15  2  0
 15 16  1  0
 16 17  2  0
 17 18  1  0
 18 19  1  0
 19 20  1  0
 20 21  1  1
 19  6  1  0
 20  9  1  0
 17 11  1  0
M  END
>  <ChemBL_ID>  (819) 
CHEMBL2368129

>  <Compound_Key>  (819) 
14

>  <Ki>  (819) 
440.0

>  <database>  (819) 
CHEMBL

>  <Assay_ChEMBL_ID>  (819) 
CHEMBL809859

>  <Document_ChEMBL_ID>  (819) 
CHEMBL1133570

$$$$

     RDKit          2D

 21 23  0  0  0  0  0  0  0  0999 V2000
   -6.7095    2.7979    0.0000 C   0  0  0  0  0  0  0  0  0  0  0  0
   -5.9911    1.4811    0.0000 C   0  0  0  0  0  0  0  0  0  0  0  0
   -5.2728    0.1642    0.0000 C   0  0  0  0  0  0  0  0  0  0  0  0
   -3.7733    0.1279    0.0000 C   0  0  0  0  0  0  0  0  0  0  0  0
   -3.0549   -1.1889    0.0000 C   0  0  0  0  0  0  0  0  0  0  0  0
   -1.5554   -1.2252    0.0000 N   0  0  0  0  0  0  0  0  0  0  0  0
   -0.8371   -2.5421    0.0000 C   0  0  0  0  0  0  0  0  0  0  0  0
    0.6625   -2.5784    0.0000 C   0  0  0  0  0  0  0  0  0  0  0  0
    1.4437   -1.2979    0.0000 C   0  0  0  0  0  0  0  0  0  0  0  0
    2.1621   -2.6147    0.0000 C   0  0  0  0  0  0  0  0  0  0  0  0
    2.2250   -0.0174    0.0000 C   0  0  0  0  0  0  0  0  0  0  0  0
    3.7245   -0.0537    0.0000 C   0  0  0  0  0  0  0  0  0  0  0  0
    4.5058    1.2268    0.0000 C   0  0  0  0  0  0  0  0  0  0  0  0
    6.0053    1.1904    0.0000 O   0  0  0  0  0  0  0  0  0  0  0  0
    3.7875    2.5436    0.0000 C   0  0  0  0  0  0  0  0  0  0  0  0
    2.2879    2.5799    0.0000 C   0  0  0  0  0  0  0  0  0  0  0  0
    1.5067    1.2994    0.0000 C   0  0  0  0  0  0  0  0  0  0  0  0
    0.0071    1.3357    0.0000 C   0  0  0  0  0  0  0  0  0  0  0  0
   -0.7741    0.0553    0.0000 C   0  0  0  0  0  0  0  0  0  0  0  0
   -0.0558   -1.2616    0.0000 C   0  0  0  0  0  0  0  0  0  0  0  0
   -0.2940   -2.0223    0.0000 C   0  0  0  0  0  0  0  0  0  0  0  0
  1  2  3  0
  2  3  1  0
  3  4  1  0
  4  5  1  0
  5  6  1  0
  6  7  1  0
  7  8  1  0
  8  9  1  0
  9 10  1  1
  9 11  1  0
 11 12  2  0
 12 13  1  0
 13 14  1  0
 13 15  2  0
 15 16  1  0
 16 17  2  0
 17 18  1  0
 18 19  1  0
 19 20  1  0
 20 21  1  6
 19  6  1  0
 20  9  1  0
 17 11  1  0
M  END
>  <ChemBL_ID>  (820) 
CHEMBL2368129

>  <Compound_Key>  (820) 
23

>  <Ki>  (820) 
7600.0

>  <database>  (820) 
Literature

>  <Assay_ChEMBL_ID>  (820) 
CHEMBL809859

>  <Document_ChEMBL_ID>  (820) 
CHEMBL1133570

$$$$

     RDKit          2D

 22 24  0  0  0  0  0  0  0  0999 V2000
   -0.1249    1.8460    0.0000 C   0  0  0  0  0  0  0  0  0  0  0  0
    0.4306    1.2742    0.0000 C   0  0  0  0  0  0  0  0  0  0  0  0
   -0.3157   -0.0270    0.0000 C   0  0  0  0  0  0  0  0  0  0  0  0
    0.4381   -1.3238    0.0000 C   0  0  0  0  0  0  0  0  0  0  0  0
    1.9381   -1.3195    0.0000 C   0  0  0  0  0  0  0  0  0  0  0  0
    2.6918   -2.6164    0.0000 C   0  0  0  0  0  0  0  0  0  0  0  0
    4.1918   -2.6120    0.0000 C   0  0  0  0  0  0  0  0  0  0  0  0
    4.9381   -1.3108    0.0000 C   0  0  0  0  0  0  0  0  0  0  0  0
    6.4381   -1.3065    0.0000 O   0  0  0  0  0  0  0  0  0  0  0  0
    4.1843   -0.0140    0.0000 C   0  0  0  0  0  0  0  0  0  0  0  0
    2.6843   -0.0183    0.0000 C   0  0  0  0  0  0  0  0  0  0  0  0
    1.9306    1.2786    0.0000 C   0  0  0  0  0  0  0  0  0  0  0  0
    2.6768    2.5798    0.0000 C   0  0  0  0  0  0  0  0  0  0  0  0
    1.1768    2.5754    0.0000 C   0  0  0  0  0  0  0  0  0  0  0  0
   -0.3232    2.5711    0.0000 C   0  0  0  0  0  0  0  0  0  0  0  0
   -1.0694    1.2699    0.0000 N   0  0  0  0  0  0  0  0  0  0  0  0
   -2.5694    1.2655    0.0000 C   0  0  0  0  0  0  0  0  0  0  0  0
   -3.3156   -0.0357    0.0000 C   0  0  0  0  0  0  0  0  0  0  0  0
   -4.8156   -0.0400    0.0000 C   0  0  0  0  0  0  0  0  0  0  0  0
   -5.5619   -1.3412    0.0000 C   0  0  0  0  0  0  0  0  0  0  0  0
   -7.0619   -1.3455    0.0000 C   0  0  0  0  0  0  0  0  0  0  0  0
   -8.5619   -1.3499    0.0000 N   0  0  0  0  0  0  0  0  0  0  0  0
  2  1  1  6
  2  3  1  0
  3  4  1  0
  4  5  1  0
  5  6  2  0
  6  7  1  0
  7  8  2  0
  8  9  1  0
  8 10  1  0
 10 11  2  0
 11 12  1  0
 12 13  1  1
 12 14  1  0
 14 15  1  0
 15 16  1  0
 16 17  1  0
 17 18  1  0
 18 19  1  0
 19 20  1  0
 20 21  1  0
 21 22  3  0
 12  2  1  0
 16  3  1  0
 11  5  1  0
M  END
>  <ChemBL_ID>  (821) 
CHEMBL2368128

>  <Compound_Key>  (821) 
5

>  <Ki>  (821) 
2800.0

>  <database>  (821) 
CHEMBL

>  <Assay_ChEMBL_ID>  (821) 
CHEMBL809859

>  <Document_ChEMBL_ID>  (821) 
CHEMBL1133570

$$$$

     RDKit          2D

 22 24  0  0  0  0  0  0  0  0999 V2000
   -0.1249    1.8460    0.0000 C   0  0  0  0  0  0  0  0  0  0  0  0
    0.4306    1.2742    0.0000 C   0  0  0  0  0  0  0  0  0  0  0  0
   -0.3157   -0.0270    0.0000 C   0  0  0  0  0  0  0  0  0  0  0  0
    0.4381   -1.3238    0.0000 C   0  0  0  0  0  0  0  0  0  0  0  0
    1.9381   -1.3195    0.0000 C   0  0  0  0  0  0  0  0  0  0  0  0
    2.6918   -2.6164    0.0000 C   0  0  0  0  0  0  0  0  0  0  0  0
    4.1918   -2.6120    0.0000 C   0  0  0  0  0  0  0  0  0  0  0  0
    4.9381   -1.3108    0.0000 C   0  0  0  0  0  0  0  0  0  0  0  0
    6.4381   -1.3065    0.0000 O   0  0  0  0  0  0  0  0  0  0  0  0
    4.1843   -0.0140    0.0000 C   0  0  0  0  0  0  0  0  0  0  0  0
    2.6843   -0.0183    0.0000 C   0  0  0  0  0  0  0  0  0  0  0  0
    1.9306    1.2786    0.0000 C   0  0  0  0  0  0  0  0  0  0  0  0
    2.6768    2.5798    0.0000 C   0  0  0  0  0  0  0  0  0  0  0  0
    1.1768    2.5754    0.0000 C   0  0  0  0  0  0  0  0  0  0  0  0
   -0.3232    2.5711    0.0000 C   0  0  0  0  0  0  0  0  0  0  0  0
   -1.0694    1.2699    0.0000 N   0  0  0  0  0  0  0  0  0  0  0  0
   -2.5694    1.2655    0.0000 C   0  0  0  0  0  0  0  0  0  0  0  0
   -3.3156   -0.0357    0.0000 C   0  0  0  0  0  0  0  0  0  0  0  0
   -4.8156   -0.0400    0.0000 C   0  0  0  0  0  0  0  0  0  0  0  0
   -5.5619   -1.3412    0.0000 C   0  0  0  0  0  0  0  0  0  0  0  0
   -7.0619   -1.3455    0.0000 C   0  0  0  0  0  0  0  0  0  0  0  0
   -8.5619   -1.3499    0.0000 N   0  0  0  0  0  0  0  0  0  0  0  0
  2  1  1  1
  2  3  1  0
  3  4  1  0
  4  5  1  0
  5  6  2  0
  6  7  1  0
  7  8  2  0
  8  9  1  0
  8 10  1  0
 10 11  2  0
 11 12  1  0
 12 13  1  6
 12 14  1  0
 14 15  1  0
 15 16  1  0
 16 17  1  0
 17 18  1  0
 18 19  1  0
 19 20  1  0
 20 21  1  0
 21 22  3  0
 12  2  1  0
 16  3  1  0
 11  5  1  0
M  END
>  <ChemBL_ID>  (822) 
CHEMBL2368128

>  <Compound_Key>  (822) 
25

>  <Ki>  (822) 
760.0

>  <database>  (822) 
Literature

>  <Assay_ChEMBL_ID>  (822) 
CHEMBL809859

>  <Document_ChEMBL_ID>  (822) 
CHEMBL1133570

$$$$

     RDKit          2D

 29 32  0  0  0  0  0  0  0  0999 V2000
    2.7109    3.0758    0.0000 C   0  0  0  0  0  0  0  0  0  0  0  0
    2.2586    1.6456    0.0000 O   0  0  0  0  0  0  0  0  0  0  0  0
    3.2711    0.5388    0.0000 C   0  0  0  0  0  0  0  0  0  0  0  0
    2.8189   -0.8914    0.0000 C   0  0  0  0  0  0  0  0  0  0  0  0
    1.3541   -1.2148    0.0000 C   0  0  0  0  0  0  0  0  0  0  0  0
    0.9019   -2.6450    0.0000 O   0  0  0  0  0  0  0  0  0  0  0  0
    0.3417   -0.1080    0.0000 N   0  0  0  0  0  0  0  0  0  0  0  0
   -1.1230   -0.4315    0.0000 C   0  0  0  0  0  0  0  0  0  0  0  0
   -2.1355    0.6753    0.0000 C   0  0  0  0  0  0  0  0  0  0  0  0
   -3.6002    0.3518    0.0000 C   0  0  0  0  0  0  0  0  0  0  0  0
   -4.0525   -1.0784    0.0000 N   0  0  0  0  0  0  0  0  0  0  0  0
   -5.5172   -1.4018    0.0000 C   0  0  0  0  0  0  0  0  0  0  0  0
   -6.5296   -0.2950    0.0000 C   0  0  0  0  0  0  0  0  0  0  0  0
   -6.0774    1.1352    0.0000 C   0  0  0  0  0  0  0  0  0  0  0  0
   -7.0898    2.2419    0.0000 C   0  0  0  0  0  0  0  0  0  0  0  0
   -8.5546    1.9185    0.0000 C   0  0  0  0  0  0  0  0  0  0  0  0
   -9.0068    0.4883    0.0000 C   0  0  0  0  0  0  0  0  0  0  0  0
   -7.9944   -0.6185    0.0000 C   0  0  0  0  0  0  0  0  0  0  0  0
   -3.0400   -2.1851    0.0000 C   0  0  0  0  0  0  0  0  0  0  0  0
   -1.5753   -1.8617    0.0000 C   0  0  0  0  0  0  0  0  0  0  0  0
    3.8313   -1.9981    0.0000 C   0  0  0  0  0  0  0  0  0  0  0  0
    5.2960   -1.6747    0.0000 C   0  0  0  0  0  0  0  0  0  0  0  0
    6.3085   -2.7815    0.0000 Br  0  0  0  0  0  0  0  0  0  0  0  0
    5.7483   -0.2445    0.0000 C   0  0  0  0  0  0  0  0  0  0  0  0
    7.2130    0.0789    0.0000 C   0  0  0  0  0  0  0  0  0  0  0  0
    7.6653    1.5091    0.0000 C   0  0  0  0  0  0  0  0  0  0  0  0
    6.6528    2.6159    0.0000 C   0  0  0  0  0  0  0  0  0  0  0  0
    5.1881    2.2925    0.0000 C   0  0  0  0  0  0  0  0  0  0  0  0
    4.7358    0.8623    0.0000 C   0  0  0  0  0  0  0  0  0  0  0  0
  1  2  1  0
  2  3  1  0
  3  4  2  0
  4  5  1  0
  5  6  2  0
  5  7  1  0
  7  8  1  0
  8  9  1  0
  9 10  1  0
 10 11  1  0
 11 12  1  0
 12 13  1  0
 13 14  2  0
 14 15  1  0
 15 16  2  0
 16 17  1  0
 17 18  2  0
 11 19  1  0
 19 20  1  0
  4 21  1  0
 21 22  2  0
 22 23  1  0
 22 24  1  0
 24 25  2  0
 25 26  1  0
 26 27  2  0
 27 28  1  0
 28 29  2  0
 29  3  1  0
 20  8  1  0
 29 24  1  0
 18 13  1  0
M  END
>  <ChemBL_ID>  (823) 
CHEMBL51959

>  <Compound_Key>  (823) 
1

>  <Ki>  (823) 
35.0

>  <database>  (823) 
CHEMBL

>  <Assay_ChEMBL_ID>  (823) 
CHEMBL808907

>  <Document_ChEMBL_ID>  (823) 
CHEMBL1134687

$$$$

     RDKit          2D

 19 21  0  0  0  0  0  0  0  0999 V2000
   -1.6810    1.3068    0.0000 C   0  0  0  0  0  0  0  0  0  0  0  0
   -0.9951    0.9006    0.0000 C   0  0  0  0  0  0  0  0  0  0  0  0
   -1.3740   -0.5507    0.0000 C   0  0  0  0  0  0  0  0  0  0  0  0
   -0.3066   -1.6046    0.0000 C   0  0  0  0  0  0  0  0  0  0  0  0
    1.1398   -1.2071    0.0000 C   0  0  0  0  0  0  0  0  0  0  0  0
    2.2072   -2.2609    0.0000 C   0  0  0  0  0  0  0  0  0  0  0  0
    3.6536   -1.8634    0.0000 C   0  0  0  0  0  0  0  0  0  0  0  0
    4.0325   -0.4121    0.0000 C   0  0  0  0  0  0  0  0  0  0  0  0
    5.4789   -0.0145    0.0000 O   0  0  0  0  0  0  0  0  0  0  0  0
    2.9651    0.6418    0.0000 C   0  0  0  0  0  0  0  0  0  0  0  0
    1.5187    0.2443    0.0000 C   0  0  0  0  0  0  0  0  0  0  0  0
    0.4513    1.2981    0.0000 C   0  0  0  0  0  0  0  0  0  0  0  0
    0.8302    2.7495    0.0000 C   0  0  0  0  0  0  0  0  0  0  0  0
   -0.6162    2.3520    0.0000 C   0  0  0  0  0  0  0  0  0  0  0  0
   -2.0625    1.9545    0.0000 C   0  0  0  0  0  0  0  0  0  0  0  0
   -2.4415    0.5031    0.0000 N   0  0  0  0  0  0  0  0  0  0  0  0
   -3.8878    0.1056    0.0000 C   0  0  0  0  0  0  0  0  0  0  0  0
   -4.2668   -1.3458    0.0000 C   0  0  0  0  0  0  0  0  0  0  0  0
   -4.6457   -2.7971    0.0000 N   0  0  0  0  0  0  0  0  0  0  0  0
  2  1  1  6
  2  3  1  0
  3  4  1  0
  4  5  1  0
  5  6  2  0
  6  7  1  0
  7  8  2  0
  8  9  1  0
  8 10  1  0
 10 11  2  0
 11 12  1  0
 12 13  1  1
 12 14  1  0
 14 15  1  0
 15 16  1  0
 16 17  1  0
 17 18  1  0
 18 19  3  0
 12  2  1  0
 16  3  1  0
 11  5  1  0
M  END
>  <ChemBL_ID>  (824) 
CHEMBL2368127

>  <Compound_Key>  (824) 
2

>  <Ki>  (824) 
19000.0

>  <database>  (824) 
CHEMBL

>  <Assay_ChEMBL_ID>  (824) 
CHEMBL809859

>  <Document_ChEMBL_ID>  (824) 
CHEMBL1133570

$$$$

     RDKit          2D

 19 21  0  0  0  0  0  0  0  0999 V2000
   -1.6810    1.3068    0.0000 C   0  0  0  0  0  0  0  0  0  0  0  0
   -0.9951    0.9006    0.0000 C   0  0  0  0  0  0  0  0  0  0  0  0
   -1.3740   -0.5507    0.0000 C   0  0  0  0  0  0  0  0  0  0  0  0
   -0.3066   -1.6046    0.0000 C   0  0  0  0  0  0  0  0  0  0  0  0
    1.1398   -1.2071    0.0000 C   0  0  0  0  0  0  0  0  0  0  0  0
    2.2072   -2.2609    0.0000 C   0  0  0  0  0  0  0  0  0  0  0  0
    3.6536   -1.8634    0.0000 C   0  0  0  0  0  0  0  0  0  0  0  0
    4.0325   -0.4121    0.0000 C   0  0  0  0  0  0  0  0  0  0  0  0
    5.4789   -0.0145    0.0000 O   0  0  0  0  0  0  0  0  0  0  0  0
    2.9651    0.6418    0.0000 C   0  0  0  0  0  0  0  0  0  0  0  0
    1.5187    0.2443    0.0000 C   0  0  0  0  0  0  0  0  0  0  0  0
    0.4513    1.2981    0.0000 C   0  0  0  0  0  0  0  0  0  0  0  0
    0.8302    2.7495    0.0000 C   0  0  0  0  0  0  0  0  0  0  0  0
   -0.6162    2.3520    0.0000 C   0  0  0  0  0  0  0  0  0  0  0  0
   -2.0625    1.9545    0.0000 C   0  0  0  0  0  0  0  0  0  0  0  0
   -2.4415    0.5031    0.0000 N   0  0  0  0  0  0  0  0  0  0  0  0
   -3.8878    0.1056    0.0000 C   0  0  0  0  0  0  0  0  0  0  0  0
   -4.2668   -1.3458    0.0000 C   0  0  0  0  0  0  0  0  0  0  0  0
   -4.6457   -2.7971    0.0000 N   0  0  0  0  0  0  0  0  0  0  0  0
  2  1  1  1
  2  3  1  0
  3  4  1  0
  4  5  1  0
  5  6  2  0
  6  7  1  0
  7  8  2  0
  8  9  1  0
  8 10  1  0
 10 11  2  0
 11 12  1  0
 12 13  1  6
 12 14  1  0
 14 15  1  0
 15 16  1  0
 16 17  1  0
 17 18  1  0
 18 19  3  0
 12  2  1  0
 16  3  1  0
 11  5  1  0
M  END
>  <ChemBL_ID>  (825) 
CHEMBL2368127

>  <Compound_Key>  (825) 
28

>  <Ki>  (825) 
3500.0

>  <database>  (825) 
Literature

>  <Assay_ChEMBL_ID>  (825) 
CHEMBL809859

>  <Document_ChEMBL_ID>  (825) 
CHEMBL1133570

$$$$

     RDKit          2D

 22 24  0  0  0  0  0  0  0  0999 V2000
   -7.9518    2.2916    0.0000 C   0  0  0  0  0  0  0  0  0  0  0  0
   -7.1560    1.0201    0.0000 C   0  0  0  0  0  0  0  0  0  0  0  0
   -5.6569    1.0737    0.0000 C   0  0  0  0  0  0  0  0  0  0  0  0
   -4.8611   -0.1978    0.0000 C   0  0  0  0  0  0  0  0  0  0  0  0
   -3.3620   -0.1443    0.0000 C   0  0  0  0  0  0  0  0  0  0  0  0
   -2.5661   -1.4157    0.0000 C   0  0  0  0  0  0  0  0  0  0  0  0
   -1.0671   -1.3622    0.0000 N   0  0  0  0  0  0  0  0  0  0  0  0
   -0.2712   -2.6336    0.0000 C   0  0  0  0  0  0  0  0  0  0  0  0
    1.2278   -2.5801    0.0000 C   0  0  0  0  0  0  0  0  0  0  0  0
    1.9310   -1.2552    0.0000 C   0  0  0  0  0  0  0  0  0  0  0  0
    2.7269   -2.5266    0.0000 C   0  0  0  0  0  0  0  0  0  0  0  0
    2.6342    0.0698    0.0000 C   0  0  0  0  0  0  0  0  0  0  0  0
    4.1332    0.1233    0.0000 C   0  0  0  0  0  0  0  0  0  0  0  0
    4.8364    1.4483    0.0000 C   0  0  0  0  0  0  0  0  0  0  0  0
    6.3354    1.5018    0.0000 O   0  0  0  0  0  0  0  0  0  0  0  0
    4.0405    2.7198    0.0000 C   0  0  0  0  0  0  0  0  0  0  0  0
    2.5415    2.6662    0.0000 C   0  0  0  0  0  0  0  0  0  0  0  0
    1.8383    1.3413    0.0000 C   0  0  0  0  0  0  0  0  0  0  0  0
    0.3393    1.2877    0.0000 C   0  0  0  0  0  0  0  0  0  0  0  0
   -0.3639   -0.0372    0.0000 C   0  0  0  0  0  0  0  0  0  0  0  0
    0.4320   -1.3087    0.0000 C   0  0  0  0  0  0  0  0  0  0  0  0
    0.2398   -2.0823    0.0000 C   0  0  0  0  0  0  0  0  0  0  0  0
  1  2  2  0
  2  3  1  0
  3  4  1  0
  4  5  1  0
  5  6  1  0
  6  7  1  0
  7  8  1  0
  8  9  1  0
  9 10  1  0
 10 11  1  6
 10 12  1  0
 12 13  2  0
 13 14  1  0
 14 15  1  0
 14 16  2  0
 16 17  1  0
 17 18  2  0
 18 19  1  0
 19 20  1  0
 20 21  1  0
 21 22  1  1
 20  7  1  0
 21 10  1  0
 18 12  1  0
M  END
>  <ChemBL_ID>  (826) 
CHEMBL2368126

>  <Compound_Key>  (826) 
11

>  <Ki>  (826) 
80.0

>  <database>  (826) 
CHEMBL

>  <Assay_ChEMBL_ID>  (826) 
CHEMBL809859

>  <Document_ChEMBL_ID>  (826) 
CHEMBL1133570

$$$$

     RDKit          2D

 29 33  0  0  0  0  0  0  0  0999 V2000
    1.3017   -2.9349    0.0000 C   0  0  0  0  0  0  0  0  0  0  0  0
   -0.0201   -2.2259    0.0000 N   0  0  0  0  0  0  0  0  0  0  0  0
   -1.2951   -3.0160    0.0000 C   0  0  0  0  0  0  0  0  0  0  0  0
   -2.6169   -2.3070    0.0000 C   0  0  0  0  0  0  0  0  0  0  0  0
   -2.6637   -0.8077    0.0000 C   0  0  0  0  0  0  0  0  0  0  0  0
   -3.9856   -0.0986    0.0000 C   0  0  0  0  0  0  0  0  0  0  0  0
   -4.0324    1.4007    0.0000 C   0  0  0  0  0  0  0  0  0  0  0  0
   -5.3542    2.1097    0.0000 C   0  0  0  0  0  0  0  0  0  0  0  0
   -6.6292    1.3196    0.0000 C   0  0  0  0  0  0  0  0  0  0  0  0
   -6.5824   -0.1797    0.0000 C   0  0  0  0  0  0  0  0  0  0  0  0
   -7.8574   -0.9699    0.0000 O   0  0  0  0  0  0  0  0  0  0  0  0
   -5.2606   -0.8888    0.0000 C   0  0  0  0  0  0  0  0  0  0  0  0
   -2.7106    0.6916    0.0000 C   0  0  0  0  0  0  0  0  0  0  0  0
   -1.4356    1.4818    0.0000 C   0  0  0  0  0  0  0  0  0  0  0  0
   -1.4824    2.9810    0.0000 O   0  0  0  0  0  0  0  0  0  0  0  0
   -0.1138    0.7727    0.0000 C   0  0  0  0  0  0  0  0  0  0  0  0
    1.1612    1.5629    0.0000 C   0  0  0  0  0  0  0  0  0  0  0  0
    2.4830    0.8538    0.0000 C   0  0  0  0  0  0  0  0  0  0  0  0
    2.5299   -0.6455    0.0000 C   0  0  0  0  0  0  0  0  0  0  0  0
    3.8517   -1.3546    0.0000 C   0  0  0  0  0  0  0  0  0  0  0  0
    5.1267   -0.5644    0.0000 C   0  0  0  0  0  0  0  0  0  0  0  0
    6.4485   -1.2735    0.0000 C   0  0  0  0  0  0  0  0  0  0  0  0
    7.7235   -0.4833    0.0000 C   0  0  0  0  0  0  0  0  0  0  0  0
    7.6767    1.0160    0.0000 C   0  0  0  0  0  0  0  0  0  0  0  0
    6.3548    1.7251    0.0000 C   0  0  0  0  0  0  0  0  0  0  0  0
    5.0799    0.9349    0.0000 C   0  0  0  0  0  0  0  0  0  0  0  0
    3.7580    1.6440    0.0000 C   0  0  0  0  0  0  0  0  0  0  0  0
   -0.0669   -0.7266    0.0000 C   0  0  0  0  0  0  0  0  0  0  0  0
   -1.3888   -0.0175    0.0000 C   0  0  0  0  0  0  0  0  0  0  0  0
  1  2  1  0
  2  3  1  0
  3  4  1  0
  4  5  1  0
  5  6  1  0
  6  7  2  0
  7  8  1  0
  8  9  2  0
  9 10  1  0
 10 11  1  0
 10 12  2  0
  5 13  1  0
 13 14  1  0
 14 15  2  0
 14 16  1  0
 16 17  2  0
 17 18  1  0
 18 19  2  0
 19 20  1  0
 20 21  2  0
 21 22  1  0
 22 23  2  0
 23 24  1  0
 24 25  2  0
 25 26  1  0
 26 27  2  0
 16 28  1  0
 28 29  1  0
 28  2  1  0
 29  5  1  0
 12  6  1  0
 27 18  1  0
 26 21  1  0
M  END
>  <ChemBL_ID>  (827) 
CHEMBL145780

>  <Compound_Key>  (827) 
12

>  <Ki>  (827) 
80.2

>  <database>  (827) 
CHEMBL

>  <Assay_ChEMBL_ID>  (827) 
CHEMBL809526

>  <Document_ChEMBL_ID>  (827) 
CHEMBL1128667

$$$$

     RDKit          2D

 19 21  0  0  0  0  0  0  0  0999 V2000
    1.7280   -0.7730    0.0000 C   0  0  0  0  0  0  0  0  0  0  0  0
    2.3624   -0.2903    0.0000 C   0  0  0  0  0  0  0  0  0  0  0  0
    1.6075   -0.0344    0.0000 C   0  0  0  0  0  0  0  0  0  0  0  0
    3.4281   -1.3459    0.0000 C   0  0  0  0  0  0  0  0  0  0  0  0
    4.7614   -0.6587    0.0000 C   0  0  0  0  0  0  0  0  0  0  0  0
    4.5197    0.8217    0.0000 C   0  0  0  0  0  0  0  0  0  0  0  0
    3.0371    1.0494    0.0000 C   0  0  0  0  0  0  0  0  0  0  0  0
    2.3498    2.3827    0.0000 C   0  0  0  0  0  0  0  0  0  0  0  0
    1.5291    0.9766    0.0000 C   0  0  0  0  0  0  0  0  0  0  0  0
    0.9982   -0.4263    0.0000 N   0  0  0  0  0  0  0  0  0  0  0  0
   -0.4822   -0.6679    0.0000 C   0  0  0  0  0  0  0  0  0  0  0  0
   -1.4317    0.4933    0.0000 C   0  0  0  0  0  0  0  0  0  0  0  0
   -2.9121    0.2517    0.0000 C   0  0  0  0  0  0  0  0  0  0  0  0
   -3.8616    1.4129    0.0000 C   0  0  0  0  0  0  0  0  0  0  0  0
   -5.3420    1.1713    0.0000 C   0  0  0  0  0  0  0  0  0  0  0  0
   -5.8729   -0.2316    0.0000 C   0  0  0  0  0  0  0  0  0  0  0  0
   -4.9235   -1.3928    0.0000 C   0  0  0  0  0  0  0  0  0  0  0  0
   -3.4430   -1.1512    0.0000 C   0  0  0  0  0  0  0  0  0  0  0  0
    1.9477   -1.5876    0.0000 C   0  0  0  0  0  0  0  0  0  0  0  0
  1  2  1  0
  2  3  1  0
  2  4  1  0
  4  5  1  0
  5  6  1  0
  6  7  1  0
  7  8  1  1
  7  9  1  0
  9 10  1  0
 10 11  1  0
 11 12  1  0
 12 13  1  0
 13 14  1  0
 14 15  1  0
 15 16  1  0
 16 17  1  0
 17 18  1  0
 10 19  1  0
  7  2  1  0
 18 13  1  0
 19  4  1  0
M  END
>  <ChemBL_ID>  (828) 
CHEMBL77812

>  <Compound_Key>  (828) 
7

>  <Ki>  (828) 
0.23

>  <database>  (828) 
CHEMBL

>  <Assay_ChEMBL_ID>  (828) 
CHEMBL809857

>  <Document_ChEMBL_ID>  (828) 
CHEMBL1130524

$$$$

     RDKit          2D

 17 19  0  0  0  0  0  0  0  0999 V2000
   -0.6508    0.6010    0.0000 C   0  0  0  0  0  0  0  0  0  0  0  0
   -1.3689    0.2549    0.0000 C   0  0  0  0  0  0  0  0  0  0  0  0
   -0.6804   -0.1468    0.0000 C   0  0  0  0  0  0  0  0  0  0  0  0
   -2.2019    1.5024    0.0000 C   0  0  0  0  0  0  0  0  0  0  0  0
   -3.6457    1.0957    0.0000 C   0  0  0  0  0  0  0  0  0  0  0  0
   -3.7050   -0.4031    0.0000 C   0  0  0  0  0  0  0  0  0  0  0  0
   -2.2979   -0.9227    0.0000 C   0  0  0  0  0  0  0  0  0  0  0  0
   -1.8912   -2.3665    0.0000 C   0  0  0  0  0  0  0  0  0  0  0  0
   -0.8059   -1.1530    0.0000 C   0  0  0  0  0  0  0  0  0  0  0  0
   -0.0050    0.1153    0.0000 N   0  0  0  0  0  0  0  0  0  0  0  0
    1.4938    0.0560    0.0000 C   0  0  0  0  0  0  0  0  0  0  0  0
    2.1918   -1.2717    0.0000 C   0  0  0  0  0  0  0  0  0  0  0  0
    3.6906   -1.3311    0.0000 C   0  0  0  0  0  0  0  0  0  0  0  0
    4.4914   -0.0627    0.0000 C   0  0  0  0  0  0  0  0  0  0  0  0
    3.7934    1.2650    0.0000 C   0  0  0  0  0  0  0  0  0  0  0  0
    2.2946    1.3243    0.0000 C   0  0  0  0  0  0  0  0  0  0  0  0
   -0.7030    1.4431    0.0000 C   0  0  0  0  0  0  0  0  0  0  0  0
  1  2  1  0
  2  3  1  0
  2  4  1  0
  4  5  1  0
  5  6  1  0
  6  7  1  0
  7  8  1  6
  7  9  1  0
  9 10  1  0
 10 11  1  0
 11 12  1  0
 12 13  1  0
 13 14  1  0
 14 15  1  0
 15 16  1  0
 10 17  1  0
  7  2  1  0
 16 11  1  0
 17  4  1  0
M  END
>  <ChemBL_ID>  (829) 
CHEMBL74499

>  <Compound_Key>  (829) 
3

>  <Ki>  (829) 
1.1

>  <database>  (829) 
CHEMBL

>  <Assay_ChEMBL_ID>  (829) 
CHEMBL809857

>  <Document_ChEMBL_ID>  (829) 
CHEMBL1130524

$$$$

     RDKit          2D

 23 27  0  0  0  0  0  0  0  0999 V2000
   -2.4895    0.7659    0.0000 C   0  0  0  0  0  0  0  0  0  0  0  0
   -3.1666    0.3452    0.0000 C   0  0  0  0  0  0  0  0  0  0  0  0
   -2.4392    0.0191    0.0000 C   0  0  0  0  0  0  0  0  0  0  0  0
   -4.1278    1.4968    0.0000 C   0  0  0  0  0  0  0  0  0  0  0  0
   -5.5201    0.9384    0.0000 C   0  0  0  0  0  0  0  0  0  0  0  0
   -5.4193   -0.5582    0.0000 C   0  0  0  0  0  0  0  0  0  0  0  0
   -3.9648   -0.9248    0.0000 C   0  0  0  0  0  0  0  0  0  0  0  0
   -3.4065   -2.3170    0.0000 C   0  0  0  0  0  0  0  0  0  0  0  0
   -2.4567   -0.9947    0.0000 C   0  0  0  0  0  0  0  0  0  0  0  0
   -1.7957    0.3518    0.0000 N   0  0  0  0  0  0  0  0  0  0  0  0
   -0.2990    0.4526    0.0000 C   0  0  0  0  0  0  0  0  0  0  0  0
    0.5365   -0.7931    0.0000 C   0  0  0  0  0  0  0  0  0  0  0  0
    2.0331   -0.6923    0.0000 C   0  0  0  0  0  0  0  0  0  0  0  0
    2.6942    0.6542    0.0000 C   0  0  0  0  0  0  0  0  0  0  0  0
    3.5298   -0.5916    0.0000 C   0  0  0  0  0  0  0  0  0  0  0  0
    5.0264   -0.4908    0.0000 C   0  0  0  0  0  0  0  0  0  0  0  0
    5.6874    0.8557    0.0000 C   0  0  0  0  0  0  0  0  0  0  0  0
    4.8518    2.1014    0.0000 C   0  0  0  0  0  0  0  0  0  0  0  0
    3.3552    2.0006    0.0000 C   0  0  0  0  0  0  0  0  0  0  0  0
    2.7680   -0.4414    0.0000 C   0  0  0  0  0  0  0  0  0  0  0  0
    2.8687   -1.9381    0.0000 C   0  0  0  0  0  0  0  0  0  0  0  0
    4.3653   -1.8373    0.0000 C   0  0  0  0  0  0  0  0  0  0  0  0
   -2.6312    1.5975    0.0000 C   0  0  0  0  0  0  0  0  0  0  0  0
  1  2  1  0
  2  3  1  0
  2  4  1  0
  4  5  1  0
  5  6  1  0
  6  7  1  0
  7  8  1  6
  7  9  1  0
  9 10  1  0
 10 11  1  0
 11 12  1  0
 12 13  1  0
 13 14  1  0
 14 15  1  0
 15 16  1  0
 16 17  1  0
 17 18  1  0
 18 19  1  0
 18 20  1  0
 20 21  1  0
 21 22  1  0
 10 23  1  0
  7  2  1  0
 21 13  1  0
 23  4  1  0
 19 14  1  0
 22 16  1  0
M  END
>  <ChemBL_ID>  (830) 
CHEMBL73818

>  <Compound_Key>  (830) 
13

>  <Ki>  (830) 
0.77

>  <database>  (830) 
CHEMBL

>  <Assay_ChEMBL_ID>  (830) 
CHEMBL809857

>  <Document_ChEMBL_ID>  (830) 
CHEMBL1130524

$$$$

     RDKit          2D

 18 20  0  0  0  0  0  0  0  0999 V2000
    1.4262   -0.7758    0.0000 C   0  0  0  0  0  0  0  0  0  0  0  0
    2.0583   -0.2902    0.0000 C   0  0  0  0  0  0  0  0  0  0  0  0
    1.3022   -0.0377    0.0000 C   0  0  0  0  0  0  0  0  0  0  0  0
    3.1289   -1.3408    0.0000 C   0  0  0  0  0  0  0  0  0  0  0  0
    4.4590   -0.6473    0.0000 C   0  0  0  0  0  0  0  0  0  0  0  0
    4.2104    0.8319    0.0000 C   0  0  0  0  0  0  0  0  0  0  0  0
    2.7268    1.0527    0.0000 C   0  0  0  0  0  0  0  0  0  0  0  0
    2.0333    2.3827    0.0000 C   0  0  0  0  0  0  0  0  0  0  0  0
    1.2192    0.9728    0.0000 C   0  0  0  0  0  0  0  0  0  0  0  0
    0.6948   -0.4325    0.0000 N   0  0  0  0  0  0  0  0  0  0  0  0
   -0.7845   -0.6811    0.0000 C   0  0  0  0  0  0  0  0  0  0  0  0
   -1.7394    0.4757    0.0000 C   0  0  0  0  0  0  0  0  0  0  0  0
   -3.2186    0.2272    0.0000 C   0  0  0  0  0  0  0  0  0  0  0  0
   -3.8871   -1.1156    0.0000 C   0  0  0  0  0  0  0  0  0  0  0  0
   -5.3707   -0.8949    0.0000 C   0  0  0  0  0  0  0  0  0  0  0  0
   -5.6193    0.5844    0.0000 C   0  0  0  0  0  0  0  0  0  0  0  0
   -4.2892    1.2779    0.0000 C   0  0  0  0  0  0  0  0  0  0  0  0
    1.6496   -1.5894    0.0000 C   0  0  0  0  0  0  0  0  0  0  0  0
  1  2  1  0
  2  3  1  0
  2  4  1  0
  4  5  1  0
  5  6  1  0
  6  7  1  0
  7  8  1  6
  7  9  1  0
  9 10  1  0
 10 11  1  0
 11 12  1  0
 12 13  1  0
 13 14  1  0
 14 15  1  0
 15 16  1  0
 16 17  1  0
 10 18  1  0
  7  2  1  0
 17 13  1  0
 18  4  1  0
M  END
>  <ChemBL_ID>  (831) 
CHEMBL73633

>  <Compound_Key>  (831) 
10

>  <Ki>  (831) 
0.7

>  <database>  (831) 
CHEMBL

>  <Assay_ChEMBL_ID>  (831) 
CHEMBL809857

>  <Document_ChEMBL_ID>  (831) 
CHEMBL1130524

$$$$

     RDKit          2D

 19 21  0  0  0  0  0  0  0  0999 V2000
    1.7280   -0.7730    0.0000 C   0  0  0  0  0  0  0  0  0  0  0  0
    2.3624   -0.2903    0.0000 C   0  0  0  0  0  0  0  0  0  0  0  0
    1.6075   -0.0344    0.0000 C   0  0  0  0  0  0  0  0  0  0  0  0
    3.4281   -1.3459    0.0000 C   0  0  0  0  0  0  0  0  0  0  0  0
    4.7614   -0.6587    0.0000 C   0  0  0  0  0  0  0  0  0  0  0  0
    4.5197    0.8217    0.0000 C   0  0  0  0  0  0  0  0  0  0  0  0
    3.0371    1.0494    0.0000 C   0  0  0  0  0  0  0  0  0  0  0  0
    2.3498    2.3827    0.0000 C   0  0  0  0  0  0  0  0  0  0  0  0
    1.5291    0.9766    0.0000 C   0  0  0  0  0  0  0  0  0  0  0  0
    0.9982   -0.4263    0.0000 N   0  0  0  0  0  0  0  0  0  0  0  0
   -0.4822   -0.6679    0.0000 C   0  0  0  0  0  0  0  0  0  0  0  0
   -1.4317    0.4933    0.0000 C   0  0  0  0  0  0  0  0  0  0  0  0
   -2.9121    0.2517    0.0000 C   0  0  0  0  0  0  0  0  0  0  0  0
   -3.8616    1.4129    0.0000 C   0  0  0  0  0  0  0  0  0  0  0  0
   -5.3420    1.1713    0.0000 C   0  0  0  0  0  0  0  0  0  0  0  0
   -5.8729   -0.2316    0.0000 C   0  0  0  0  0  0  0  0  0  0  0  0
   -4.9235   -1.3928    0.0000 C   0  0  0  0  0  0  0  0  0  0  0  0
   -3.4430   -1.1512    0.0000 C   0  0  0  0  0  0  0  0  0  0  0  0
    1.9477   -1.5876    0.0000 C   0  0  0  0  0  0  0  0  0  0  0  0
  1  2  1  0
  2  3  1  0
  2  4  1  0
  4  5  1  0
  5  6  1  0
  6  7  1  0
  7  8  1  6
  7  9  1  0
  9 10  1  0
 10 11  1  0
 11 12  1  0
 12 13  1  0
 13 14  1  0
 14 15  1  0
 15 16  1  0
 16 17  1  0
 17 18  1  0
 10 19  1  0
  7  2  1  0
 18 13  1  0
 19  4  1  0
M  END
>  <ChemBL_ID>  (832) 
CHEMBL75555

>  <Compound_Key>  (832) 
6

>  <Ki>  (832) 
0.28

>  <database>  (832) 
CHEMBL

>  <Assay_ChEMBL_ID>  (832) 
CHEMBL809857

>  <Document_ChEMBL_ID>  (832) 
CHEMBL1130524

$$$$

     RDKit          2D

 20 22  0  0  0  0  0  0  0  0999 V2000
    2.0230   -0.7702    0.0000 C   0  0  0  0  0  0  0  0  0  0  0  0
    2.6597   -0.2905    0.0000 C   0  0  0  0  0  0  0  0  0  0  0  0
    1.9059   -0.0310    0.0000 C   0  0  0  0  0  0  0  0  0  0  0  0
    3.7203   -1.3512    0.0000 C   0  0  0  0  0  0  0  0  0  0  0  0
    5.0568   -0.6702    0.0000 C   0  0  0  0  0  0  0  0  0  0  0  0
    4.8222    0.8113    0.0000 C   0  0  0  0  0  0  0  0  0  0  0  0
    3.3407    1.0460    0.0000 C   0  0  0  0  0  0  0  0  0  0  0  0
    2.6597    2.3825    0.0000 C   0  0  0  0  0  0  0  0  0  0  0  0
    1.8324    0.9803    0.0000 C   0  0  0  0  0  0  0  0  0  0  0  0
    1.2948   -0.4201    0.0000 N   0  0  0  0  0  0  0  0  0  0  0  0
   -0.1867   -0.6547    0.0000 C   0  0  0  0  0  0  0  0  0  0  0  0
   -1.1307    0.5111    0.0000 C   0  0  0  0  0  0  0  0  0  0  0  0
   -2.6122    0.2764    0.0000 C   0  0  0  0  0  0  0  0  0  0  0  0
   -3.0437   -1.1602    0.0000 C   0  0  0  0  0  0  0  0  0  0  0  0
   -4.4359   -1.7186    0.0000 C   0  0  0  0  0  0  0  0  0  0  0  0
   -5.7404   -0.9783    0.0000 C   0  0  0  0  0  0  0  0  0  0  0  0
   -5.9751    0.5033    0.0000 C   0  0  0  0  0  0  0  0  0  0  0  0
   -4.9630    1.6104    0.0000 C   0  0  0  0  0  0  0  0  0  0  0  0
   -3.4664    1.5095    0.0000 C   0  0  0  0  0  0  0  0  0  0  0  0
    2.2387   -1.5858    0.0000 C   0  0  0  0  0  0  0  0  0  0  0  0
  1  2  1  0
  2  3  1  0
  2  4  1  0
  4  5  1  0
  5  6  1  0
  6  7  1  0
  7  8  1  6
  7  9  1  0
  9 10  1  0
 10 11  1  0
 11 12  1  0
 12 13  1  0
 13 14  1  0
 14 15  1  0
 15 16  1  0
 16 17  1  0
 17 18  1  0
 18 19  1  0
 10 20  1  0
  7  2  1  0
 19 13  1  0
 20  4  1  0
M  END
>  <ChemBL_ID>  (833) 
CHEMBL77817

>  <Compound_Key>  (833) 
11

>  <Ki>  (833) 
0.25

>  <database>  (833) 
CHEMBL

>  <Assay_ChEMBL_ID>  (833) 
CHEMBL809857

>  <Document_ChEMBL_ID>  (833) 
CHEMBL1130524

$$$$

     RDKit          2D

 21 23  0  0  0  0  0  0  0  0999 V2000
    2.3121   -0.7675    0.0000 C   0  0  0  0  0  0  0  0  0  0  0  0
    2.9510   -0.2908    0.0000 C   0  0  0  0  0  0  0  0  0  0  0  0
    2.1985   -0.0278    0.0000 C   0  0  0  0  0  0  0  0  0  0  0  0
    4.0067   -1.3564    0.0000 C   0  0  0  0  0  0  0  0  0  0  0  0
    5.3464   -0.6817    0.0000 C   0  0  0  0  0  0  0  0  0  0  0  0
    5.1187    0.8009    0.0000 C   0  0  0  0  0  0  0  0  0  0  0  0
    3.6383    1.0425    0.0000 C   0  0  0  0  0  0  0  0  0  0  0  0
    2.9636    2.3822    0.0000 C   0  0  0  0  0  0  0  0  0  0  0  0
    2.1297    0.9838    0.0000 C   0  0  0  0  0  0  0  0  0  0  0  0
    1.5856   -0.4140    0.0000 N   0  0  0  0  0  0  0  0  0  0  0  0
    0.1030   -0.6417    0.0000 C   0  0  0  0  0  0  0  0  0  0  0  0
   -0.8355    0.5285    0.0000 C   0  0  0  0  0  0  0  0  0  0  0  0
   -2.3181    0.3008    0.0000 C   0  0  0  0  0  0  0  0  0  0  0  0
   -3.0959    1.5834    0.0000 C   0  0  0  0  0  0  0  0  0  0  0  0
   -4.5528    1.9404    0.0000 C   0  0  0  0  0  0  0  0  0  0  0  0
   -5.8354    1.1627    0.0000 C   0  0  0  0  0  0  0  0  0  0  0  0
   -6.1924   -0.2942    0.0000 C   0  0  0  0  0  0  0  0  0  0  0  0
   -5.4147   -1.5768    0.0000 C   0  0  0  0  0  0  0  0  0  0  0  0
   -3.9578   -1.9339    0.0000 C   0  0  0  0  0  0  0  0  0  0  0  0
   -2.6752   -1.1561    0.0000 C   0  0  0  0  0  0  0  0  0  0  0  0
    2.5241   -1.5841    0.0000 C   0  0  0  0  0  0  0  0  0  0  0  0
  1  2  1  0
  2  3  1  0
  2  4  1  0
  4  5  1  0
  5  6  1  0
  6  7  1  0
  7  8  1  6
  7  9  1  0
  9 10  1  0
 10 11  1  0
 11 12  1  0
 12 13  1  0
 13 14  1  0
 14 15  1  0
 15 16  1  0
 16 17  1  0
 17 18  1  0
 18 19  1  0
 19 20  1  0
 10 21  1  0
  7  2  1  0
 20 13  1  0
 21  4  1  0
M  END
>  <ChemBL_ID>  (834) 
CHEMBL307839

>  <Compound_Key>  (834) 
12

>  <Ki>  (834) 
0.33

>  <database>  (834) 
CHEMBL

>  <Assay_ChEMBL_ID>  (834) 
CHEMBL809857

>  <Document_ChEMBL_ID>  (834) 
CHEMBL1130524

$$$$

     RDKit          2D

 20 22  0  0  0  0  0  0  0  0999 V2000
    2.3823   -0.8596    0.0000 C   0  0  0  0  0  0  0  0  0  0  0  0
    2.8361   -0.2043    0.0000 C   0  0  0  0  0  0  0  0  0  0  0  0
    2.0390   -0.1946    0.0000 C   0  0  0  0  0  0  0  0  0  0  0  0
    4.1762   -0.8782    0.0000 C   0  0  0  0  0  0  0  0  0  0  0  0
    5.2312    0.1880    0.0000 C   0  0  0  0  0  0  0  0  0  0  0  0
    4.5432    1.5209    0.0000 C   0  0  0  0  0  0  0  0  0  0  0  0
    3.0629    1.2785    0.0000 C   0  0  0  0  0  0  0  0  0  0  0  0
    1.9967    2.3335    0.0000 C   0  0  0  0  0  0  0  0  0  0  0  0
    1.6516    0.7424    0.0000 C   0  0  0  0  0  0  0  0  0  0  0  0
    1.5810   -0.7559    0.0000 N   0  0  0  0  0  0  0  0  0  0  0  0
    0.2481   -1.4439    0.0000 C   0  0  0  0  0  0  0  0  0  0  0  0
   -1.0142   -0.6336    0.0000 C   0  0  0  0  0  0  0  0  0  0  0  0
   -2.3471   -1.3216    0.0000 C   0  0  0  0  0  0  0  0  0  0  0  0
   -3.6094   -0.5113    0.0000 C   0  0  0  0  0  0  0  0  0  0  0  0
   -3.5388    0.9871    0.0000 C   0  0  0  0  0  0  0  0  0  0  0  0
   -4.8011    1.7974    0.0000 C   0  0  0  0  0  0  0  0  0  0  0  0
   -6.1340    1.1094    0.0000 C   0  0  0  0  0  0  0  0  0  0  0  0
   -6.2046   -0.3889    0.0000 C   0  0  0  0  0  0  0  0  0  0  0  0
   -4.9423   -1.1993    0.0000 C   0  0  0  0  0  0  0  0  0  0  0  0
    2.8433   -1.5662    0.0000 C   0  0  0  0  0  0  0  0  0  0  0  0
  1  2  1  0
  2  3  1  0
  2  4  1  0
  4  5  1  0
  5  6  1  0
  6  7  1  0
  7  8  1  6
  7  9  1  0
  9 10  1  0
 10 11  1  0
 11 12  1  0
 12 13  1  0
 13 14  1  0
 14 15  1  0
 15 16  1  0
 16 17  1  0
 17 18  1  0
 18 19  1  0
 10 20  1  0
  7  2  1  0
 19 14  1  0
 20  4  1  0
M  END
>  <ChemBL_ID>  (835) 
CHEMBL306318

>  <Compound_Key>  (835) 
8

>  <Ki>  (835) 
0.56

>  <database>  (835) 
CHEMBL

>  <Assay_ChEMBL_ID>  (835) 
CHEMBL809857

>  <Document_ChEMBL_ID>  (835) 
CHEMBL1130524

$$$$

     RDKit          2D

 21 23  0  0  0  0  0  0  0  0999 V2000
    2.8448   -0.8273    0.0000 C   0  0  0  0  0  0  0  0  0  0  0  0
    3.4263   -0.2821    0.0000 C   0  0  0  0  0  0  0  0  0  0  0  0
    2.6490   -0.1050    0.0000 C   0  0  0  0  0  0  0  0  0  0  0  0
    4.5947   -1.2227    0.0000 C   0  0  0  0  0  0  0  0  0  0  0  0
    5.8504   -0.4022    0.0000 C   0  0  0  0  0  0  0  0  0  0  0  0
    5.4580    1.0456    0.0000 C   0  0  0  0  0  0  0  0  0  0  0  0
    3.9599    1.1198    0.0000 C   0  0  0  0  0  0  0  0  0  0  0  0
    3.1393    2.3755    0.0000 C   0  0  0  0  0  0  0  0  0  0  0  0
    2.4673    0.8926    0.0000 C   0  0  0  0  0  0  0  0  0  0  0  0
    2.0832   -0.5574    0.0000 N   0  0  0  0  0  0  0  0  0  0  0  0
    0.6354   -0.9497    0.0000 C   0  0  0  0  0  0  0  0  0  0  0  0
   -0.4282    0.1079    0.0000 C   0  0  0  0  0  0  0  0  0  0  0  0
   -1.8760   -0.2844    0.0000 C   0  0  0  0  0  0  0  0  0  0  0  0
   -2.9397    0.7732    0.0000 C   0  0  0  0  0  0  0  0  0  0  0  0
   -4.3874    0.3809    0.0000 C   0  0  0  0  0  0  0  0  0  0  0  0
   -5.4511    1.4385    0.0000 C   0  0  0  0  0  0  0  0  0  0  0  0
   -6.8989    1.0462    0.0000 C   0  0  0  0  0  0  0  0  0  0  0  0
   -7.2830   -0.4038    0.0000 C   0  0  0  0  0  0  0  0  0  0  0  0
   -6.2193   -1.4614    0.0000 C   0  0  0  0  0  0  0  0  0  0  0  0
   -4.7716   -1.0691    0.0000 C   0  0  0  0  0  0  0  0  0  0  0  0
    3.1469   -1.6151    0.0000 C   0  0  0  0  0  0  0  0  0  0  0  0
  1  2  1  0
  2  3  1  0
  2  4  1  0
  4  5  1  0
  5  6  1  0
  6  7  1  0
  7  8  1  6
  7  9  1  0
  9 10  1  0
 10 11  1  0
 11 12  1  0
 12 13  1  0
 13 14  1  0
 14 15  1  0
 15 16  1  0
 16 17  1  0
 17 18  1  0
 18 19  1  0
 19 20  1  0
 10 21  1  0
  7  2  1  0
 20 15  1  0
 21  4  1  0
M  END
>  <ChemBL_ID>  (836) 
CHEMBL74803

>  <Compound_Key>  (836) 
9

>  <Ki>  (836) 
6.79

>  <database>  (836) 
CHEMBL

>  <Assay_ChEMBL_ID>  (836) 
CHEMBL809857

>  <Document_ChEMBL_ID>  (836) 
CHEMBL1130524

$$$$

     RDKit          2D

 18 20  0  0  0  0  0  0  0  0999 V2000
    1.3188   -0.9439    0.0000 C   0  0  0  0  0  0  0  0  0  0  0  0
    1.7808   -0.2943    0.0000 C   0  0  0  0  0  0  0  0  0  0  0  0
    0.9838   -0.2747    0.0000 C   0  0  0  0  0  0  0  0  0  0  0  0
    3.1124   -0.9848    0.0000 C   0  0  0  0  0  0  0  0  0  0  0  0
    4.1806    0.0682    0.0000 C   0  0  0  0  0  0  0  0  0  0  0  0
    3.5092    1.4096    0.0000 C   0  0  0  0  0  0  0  0  0  0  0  0
    2.0260    1.1856    0.0000 C   0  0  0  0  0  0  0  0  0  0  0  0
    0.9730    2.2538    0.0000 C   0  0  0  0  0  0  0  0  0  0  0  0
    0.6081    0.6671    0.0000 C   0  0  0  0  0  0  0  0  0  0  0  0
    0.5189   -0.8302    0.0000 N   0  0  0  0  0  0  0  0  0  0  0  0
   -0.8225   -1.5016    0.0000 C   0  0  0  0  0  0  0  0  0  0  0  0
   -2.0746   -0.6757    0.0000 C   0  0  0  0  0  0  0  0  0  0  0  0
   -1.9853    0.8217    0.0000 C   0  0  0  0  0  0  0  0  0  0  0  0
   -3.2375    1.6476    0.0000 C   0  0  0  0  0  0  0  0  0  0  0  0
   -4.5788    0.9762    0.0000 C   0  0  0  0  0  0  0  0  0  0  0  0
   -4.6681   -0.5211    0.0000 C   0  0  0  0  0  0  0  0  0  0  0  0
   -3.4159   -1.3471    0.0000 C   0  0  0  0  0  0  0  0  0  0  0  0
    1.7710   -1.6562    0.0000 C   0  0  0  0  0  0  0  0  0  0  0  0
  1  2  1  0
  2  3  1  0
  2  4  1  0
  4  5  1  0
  5  6  1  0
  6  7  1  0
  7  8  1  6
  7  9  1  0
  9 10  1  0
 10 11  1  0
 11 12  1  0
 12 13  1  0
 13 14  1  0
 14 15  1  0
 15 16  1  0
 16 17  1  0
 10 18  1  0
  7  2  1  0
 17 12  1  0
 18  4  1  0
M  END
>  <ChemBL_ID>  (837) 
CHEMBL424606

>  <Compound_Key>  (837) 
4

>  <Ki>  (837) 
3.14

>  <database>  (837) 
CHEMBL

>  <Assay_ChEMBL_ID>  (837) 
CHEMBL809857

>  <Document_ChEMBL_ID>  (837) 
CHEMBL1130524

$$$$

     RDKit          2D

 19 21  0  0  0  0  0  0  0  0999 V2000
   -5.6235    1.9563    0.0000 C   0  0  0  0  0  0  0  0  0  0  0  0
   -4.1876    1.5222    0.0000 C   0  0  0  0  0  0  0  0  0  0  0  0
   -3.8456    0.0618    0.0000 C   0  0  0  0  0  0  0  0  0  0  0  0
   -2.4098   -0.3723    0.0000 N   0  0  0  0  0  0  0  0  0  0  0  0
   -2.0677   -1.8327    0.0000 C   0  0  0  0  0  0  0  0  0  0  0  0
   -0.6319   -2.2668    0.0000 C   0  0  0  0  0  0  0  0  0  0  0  0
    0.4619   -1.2403    0.0000 C   0  0  0  0  0  0  0  0  0  0  0  0
    0.8040   -2.7008    0.0000 C   0  0  0  0  0  0  0  0  0  0  0  0
    1.5557   -0.2138    0.0000 C   0  0  0  0  0  0  0  0  0  0  0  0
    2.9915   -0.6479    0.0000 C   0  0  0  0  0  0  0  0  0  0  0  0
    4.0853    0.3786    0.0000 C   0  0  0  0  0  0  0  0  0  0  0  0
    5.5212   -0.0554    0.0000 O   0  0  0  0  0  0  0  0  0  0  0  0
    3.7433    1.8391    0.0000 C   0  0  0  0  0  0  0  0  0  0  0  0
    2.3075    2.2731    0.0000 C   0  0  0  0  0  0  0  0  0  0  0  0
    1.2137    1.2466    0.0000 C   0  0  0  0  0  0  0  0  0  0  0  0
   -0.2222    1.6807    0.0000 C   0  0  0  0  0  0  0  0  0  0  0  0
   -1.3160    0.6542    0.0000 C   0  0  0  0  0  0  0  0  0  0  0  0
   -0.9739   -0.8063    0.0000 C   0  0  0  0  0  0  0  0  0  0  0  0
   -1.4059   -1.4762    0.0000 C   0  0  0  0  0  0  0  0  0  0  0  0
  1  2  2  0
  2  3  1  0
  3  4  1  0
  4  5  1  0
  5  6  1  0
  6  7  1  0
  7  8  1  1
  7  9  1  0
  9 10  2  0
 10 11  1  0
 11 12  1  0
 11 13  2  0
 13 14  1  0
 14 15  2  0
 15 16  1  0
 17 16  1  1
 17 18  1  0
 18 19  1  6
 17  4  1  0
 18  7  1  0
 15  9  1  0
M  END
>  <ChemBL_ID>  (838) 
CHEMBL101510

>  <Compound_Key>  (838) 
(+/-)-SKF-10047

>  <Ki>  (838) 
14200.0

>  <database>  (838) 
CHEMBL

>  <Assay_ChEMBL_ID>  (838) 
CHEMBL809857

>  <Document_ChEMBL_ID>  (838) 
CHEMBL1130524

$$$$

     RDKit          2D

 18 20  0  0  0  0  0  0  0  0999 V2000
    1.3188   -0.9439    0.0000 C   0  0  0  0  0  0  0  0  0  0  0  0
    1.7808   -0.2943    0.0000 C   0  0  0  0  0  0  0  0  0  0  0  0
    0.9838   -0.2747    0.0000 C   0  0  0  0  0  0  0  0  0  0  0  0
    3.1124   -0.9848    0.0000 C   0  0  0  0  0  0  0  0  0  0  0  0
    4.1806    0.0682    0.0000 C   0  0  0  0  0  0  0  0  0  0  0  0
    3.5092    1.4096    0.0000 C   0  0  0  0  0  0  0  0  0  0  0  0
    2.0260    1.1856    0.0000 C   0  0  0  0  0  0  0  0  0  0  0  0
    0.9730    2.2538    0.0000 C   0  0  0  0  0  0  0  0  0  0  0  0
    0.6081    0.6671    0.0000 C   0  0  0  0  0  0  0  0  0  0  0  0
    0.5189   -0.8302    0.0000 N   0  0  0  0  0  0  0  0  0  0  0  0
   -0.8225   -1.5016    0.0000 C   0  0  0  0  0  0  0  0  0  0  0  0
   -2.0746   -0.6757    0.0000 C   0  0  0  0  0  0  0  0  0  0  0  0
   -1.9853    0.8217    0.0000 C   0  0  0  0  0  0  0  0  0  0  0  0
   -3.2375    1.6476    0.0000 C   0  0  0  0  0  0  0  0  0  0  0  0
   -4.5788    0.9762    0.0000 C   0  0  0  0  0  0  0  0  0  0  0  0
   -4.6681   -0.5211    0.0000 C   0  0  0  0  0  0  0  0  0  0  0  0
   -3.4159   -1.3471    0.0000 C   0  0  0  0  0  0  0  0  0  0  0  0
    1.7710   -1.6562    0.0000 C   0  0  0  0  0  0  0  0  0  0  0  0
  1  2  1  0
  2  3  1  0
  2  4  1  0
  4  5  1  0
  5  6  1  0
  6  7  1  0
  7  8  1  1
  7  9  1  0
  9 10  1  0
 10 11  1  0
 11 12  1  0
 12 13  1  0
 13 14  1  0
 14 15  1  0
 15 16  1  0
 16 17  1  0
 10 18  1  0
  7  2  1  0
 17 12  1  0
 18  4  1  0
M  END
>  <ChemBL_ID>  (839) 
CHEMBL308816

>  <Compound_Key>  (839) 
5

>  <Ki>  (839) 
3.54

>  <database>  (839) 
CHEMBL

>  <Assay_ChEMBL_ID>  (839) 
CHEMBL809857

>  <Document_ChEMBL_ID>  (839) 
CHEMBL1130524

$$$$

     RDKit          2D

 22 24  0  0  0  0  0  0  0  0999 V2000
   -7.9518    2.2916    0.0000 C   0  0  0  0  0  0  0  0  0  0  0  0
   -7.1560    1.0201    0.0000 C   0  0  0  0  0  0  0  0  0  0  0  0
   -5.6569    1.0737    0.0000 C   0  0  0  0  0  0  0  0  0  0  0  0
   -4.8611   -0.1978    0.0000 C   0  0  0  0  0  0  0  0  0  0  0  0
   -3.3620   -0.1443    0.0000 C   0  0  0  0  0  0  0  0  0  0  0  0
   -2.5661   -1.4157    0.0000 C   0  0  0  0  0  0  0  0  0  0  0  0
   -1.0671   -1.3622    0.0000 N   0  0  0  0  0  0  0  0  0  0  0  0
   -0.2712   -2.6336    0.0000 C   0  0  0  0  0  0  0  0  0  0  0  0
    1.2278   -2.5801    0.0000 C   0  0  0  0  0  0  0  0  0  0  0  0
    1.9310   -1.2552    0.0000 C   0  0  0  0  0  0  0  0  0  0  0  0
    2.7269   -2.5266    0.0000 C   0  0  0  0  0  0  0  0  0  0  0  0
    2.6342    0.0698    0.0000 C   0  0  0  0  0  0  0  0  0  0  0  0
    4.1332    0.1233    0.0000 C   0  0  0  0  0  0  0  0  0  0  0  0
    4.8364    1.4483    0.0000 C   0  0  0  0  0  0  0  0  0  0  0  0
    6.3354    1.5018    0.0000 O   0  0  0  0  0  0  0  0  0  0  0  0
    4.0405    2.7198    0.0000 C   0  0  0  0  0  0  0  0  0  0  0  0
    2.5415    2.6662    0.0000 C   0  0  0  0  0  0  0  0  0  0  0  0
    1.8383    1.3413    0.0000 C   0  0  0  0  0  0  0  0  0  0  0  0
    0.3393    1.2877    0.0000 C   0  0  0  0  0  0  0  0  0  0  0  0
   -0.3639   -0.0372    0.0000 C   0  0  0  0  0  0  0  0  0  0  0  0
    0.4320   -1.3087    0.0000 C   0  0  0  0  0  0  0  0  0  0  0  0
    0.2398   -2.0823    0.0000 C   0  0  0  0  0  0  0  0  0  0  0  0
  1  2  2  0
  2  3  1  0
  3  4  1  0
  4  5  1  0
  5  6  1  0
  6  7  1  0
  7  8  1  0
  8  9  1  0
  9 10  1  0
 10 11  1  1
 10 12  1  0
 12 13  2  0
 13 14  1  0
 14 15  1  0
 14 16  2  0
 16 17  1  0
 17 18  2  0
 18 19  1  0
 19 20  1  0
 20 21  1  0
 21 22  1  6
 20  7  1  0
 21 10  1  0
 18 12  1  0
M  END
>  <ChemBL_ID>  (840) 
CHEMBL2368126

>  <Compound_Key>  (840) 
19

>  <Ki>  (840) 
13000.0

>  <database>  (840) 
Literature

>  <Assay_ChEMBL_ID>  (840) 
CHEMBL809859

>  <Document_ChEMBL_ID>  (840) 
CHEMBL1133570

$$$$

     RDKit          2D

 20 22  0  0  0  0  0  0  0  0999 V2000
   -5.4275    3.1396    0.0000 C   0  0  0  0  0  0  0  0  0  0  0  0
   -4.7980    1.7781    0.0000 C   0  0  0  0  0  0  0  0  0  0  0  0
   -4.1684    0.4166    0.0000 C   0  0  0  0  0  0  0  0  0  0  0  0
   -3.5389   -0.9448    0.0000 C   0  0  0  0  0  0  0  0  0  0  0  0
   -2.0450   -1.0804    0.0000 N   0  0  0  0  0  0  0  0  0  0  0  0
   -1.4154   -2.4419    0.0000 C   0  0  0  0  0  0  0  0  0  0  0  0
    0.0784   -2.5774    0.0000 C   0  0  0  0  0  0  0  0  0  0  0  0
    0.9427   -1.3514    0.0000 C   0  0  0  0  0  0  0  0  0  0  0  0
    1.5723   -2.7129    0.0000 C   0  0  0  0  0  0  0  0  0  0  0  0
    1.8070   -0.1255    0.0000 C   0  0  0  0  0  0  0  0  0  0  0  0
    3.3009   -0.2610    0.0000 C   0  0  0  0  0  0  0  0  0  0  0  0
    4.1652    0.9650    0.0000 C   0  0  0  0  0  0  0  0  0  0  0  0
    5.6591    0.8294    0.0000 O   0  0  0  0  0  0  0  0  0  0  0  0
    3.5356    2.3265    0.0000 C   0  0  0  0  0  0  0  0  0  0  0  0
    2.0418    2.4620    0.0000 C   0  0  0  0  0  0  0  0  0  0  0  0
    1.1775    1.2360    0.0000 C   0  0  0  0  0  0  0  0  0  0  0  0
   -0.3164    1.3715    0.0000 C   0  0  0  0  0  0  0  0  0  0  0  0
   -1.1807    0.1456    0.0000 C   0  0  0  0  0  0  0  0  0  0  0  0
   -0.5511   -1.2159    0.0000 C   0  0  0  0  0  0  0  0  0  0  0  0
   -0.8392   -1.9592    0.0000 C   0  0  0  0  0  0  0  0  0  0  0  0
  1  2  1  0
  2  3  3  0
  3  4  1  0
  4  5  1  0
  5  6  1  0
  6  7  1  0
  7  8  1  0
  8  9  1  6
  8 10  1  0
 10 11  2  0
 11 12  1  0
 12 13  1  0
 12 14  2  0
 14 15  1  0
 15 16  2  0
 16 17  1  0
 17 18  1  0
 18 19  1  0
 19 20  1  1
 18  5  1  0
 19  8  1  0
 16 10  1  0
M  END
>  <ChemBL_ID>  (841) 
CHEMBL2368125

>  <Compound_Key>  (841) 
12

>  <Ki>  (841) 
4400.0

>  <database>  (841) 
CHEMBL

>  <Assay_ChEMBL_ID>  (841) 
CHEMBL809859

>  <Document_ChEMBL_ID>  (841) 
CHEMBL1133570

$$$$

     RDKit          2D

 20 22  0  0  0  0  0  0  0  0999 V2000
   -5.4275    3.1396    0.0000 C   0  0  0  0  0  0  0  0  0  0  0  0
   -4.7980    1.7781    0.0000 C   0  0  0  0  0  0  0  0  0  0  0  0
   -4.1684    0.4166    0.0000 C   0  0  0  0  0  0  0  0  0  0  0  0
   -3.5389   -0.9448    0.0000 C   0  0  0  0  0  0  0  0  0  0  0  0
   -2.0450   -1.0804    0.0000 N   0  0  0  0  0  0  0  0  0  0  0  0
   -1.4154   -2.4419    0.0000 C   0  0  0  0  0  0  0  0  0  0  0  0
    0.0784   -2.5774    0.0000 C   0  0  0  0  0  0  0  0  0  0  0  0
    0.9427   -1.3514    0.0000 C   0  0  0  0  0  0  0  0  0  0  0  0
    1.5723   -2.7129    0.0000 C   0  0  0  0  0  0  0  0  0  0  0  0
    1.8070   -0.1255    0.0000 C   0  0  0  0  0  0  0  0  0  0  0  0
    3.3009   -0.2610    0.0000 C   0  0  0  0  0  0  0  0  0  0  0  0
    4.1652    0.9650    0.0000 C   0  0  0  0  0  0  0  0  0  0  0  0
    5.6591    0.8294    0.0000 O   0  0  0  0  0  0  0  0  0  0  0  0
    3.5356    2.3265    0.0000 C   0  0  0  0  0  0  0  0  0  0  0  0
    2.0418    2.4620    0.0000 C   0  0  0  0  0  0  0  0  0  0  0  0
    1.1775    1.2360    0.0000 C   0  0  0  0  0  0  0  0  0  0  0  0
   -0.3164    1.3715    0.0000 C   0  0  0  0  0  0  0  0  0  0  0  0
   -1.1807    0.1456    0.0000 C   0  0  0  0  0  0  0  0  0  0  0  0
   -0.5511   -1.2159    0.0000 C   0  0  0  0  0  0  0  0  0  0  0  0
   -0.8392   -1.9592    0.0000 C   0  0  0  0  0  0  0  0  0  0  0  0
  1  2  1  0
  2  3  3  0
  3  4  1  0
  4  5  1  0
  5  6  1  0
  6  7  1  0
  7  8  1  0
  8  9  1  1
  8 10  1  0
 10 11  2  0
 11 12  1  0
 12 13  1  0
 12 14  2  0
 14 15  1  0
 15 16  2  0
 16 17  1  0
 17 18  1  0
 18 19  1  0
 19 20  1  6
 18  5  1  0
 19  8  1  0
 16 10  1  0
M  END
>  <ChemBL_ID>  (842) 
CHEMBL2368125

>  <Compound_Key>  (842) 
16

>  <Ki>  (842) 
93000.0

>  <database>  (842) 
Literature

>  <Assay_ChEMBL_ID>  (842) 
CHEMBL809859

>  <Document_ChEMBL_ID>  (842) 
CHEMBL1133570

$$$$

     RDKit          2D

 20 22  0  0  0  0  0  0  0  0999 V2000
   -6.8969    1.6012    0.0000 C   0  0  0  0  0  0  0  0  0  0  0  0
   -5.4254    1.3103    0.0000 C   0  0  0  0  0  0  0  0  0  0  0  0
   -3.9539    1.0193    0.0000 C   0  0  0  0  0  0  0  0  0  0  0  0
   -3.4701   -0.4005    0.0000 C   0  0  0  0  0  0  0  0  0  0  0  0
   -1.9986   -0.6914    0.0000 N   0  0  0  0  0  0  0  0  0  0  0  0
   -1.5147   -2.1112    0.0000 C   0  0  0  0  0  0  0  0  0  0  0  0
   -0.0432   -2.4021    0.0000 C   0  0  0  0  0  0  0  0  0  0  0  0
    0.9445   -1.2732    0.0000 C   0  0  0  0  0  0  0  0  0  0  0  0
    1.4283   -2.6930    0.0000 C   0  0  0  0  0  0  0  0  0  0  0  0
    1.9322   -0.1443    0.0000 C   0  0  0  0  0  0  0  0  0  0  0  0
    3.4037   -0.4352    0.0000 C   0  0  0  0  0  0  0  0  0  0  0  0
    4.3914    0.6937    0.0000 C   0  0  0  0  0  0  0  0  0  0  0  0
    5.8629    0.4028    0.0000 O   0  0  0  0  0  0  0  0  0  0  0  0
    3.9076    2.1135    0.0000 C   0  0  0  0  0  0  0  0  0  0  0  0
    2.4361    2.4045    0.0000 C   0  0  0  0  0  0  0  0  0  0  0  0
    1.4484    1.2755    0.0000 C   0  0  0  0  0  0  0  0  0  0  0  0
   -0.0232    1.5664    0.0000 C   0  0  0  0  0  0  0  0  0  0  0  0
   -1.0109    0.4375    0.0000 C   0  0  0  0  0  0  0  0  0  0  0  0
   -0.5270   -0.9823    0.0000 C   0  0  0  0  0  0  0  0  0  0  0  0
   -0.8912   -1.6914    0.0000 C   0  0  0  0  0  0  0  0  0  0  0  0
  1  2  3  0
  2  3  1  0
  3  4  1  0
  4  5  1  0
  5  6  1  0
  6  7  1  0
  7  8  1  0
  8  9  1  6
  8 10  1  0
 10 11  2  0
 11 12  1  0
 12 13  1  0
 12 14  2  0
 14 15  1  0
 15 16  2  0
 16 17  1  0
 17 18  1  0
 18 19  1  0
 19 20  1  1
 18  5  1  0
 19  8  1  0
 16 10  1  0
M  END
>  <ChemBL_ID>  (843) 
CHEMBL2368124

>  <Compound_Key>  (843) 
13

>  <Ki>  (843) 
2200.0

>  <database>  (843) 
CHEMBL

>  <Assay_ChEMBL_ID>  (843) 
CHEMBL809859

>  <Document_ChEMBL_ID>  (843) 
CHEMBL1133570

$$$$

     RDKit          2D

 20 22  0  0  0  0  0  0  0  0999 V2000
   -6.8969    1.6012    0.0000 C   0  0  0  0  0  0  0  0  0  0  0  0
   -5.4254    1.3103    0.0000 C   0  0  0  0  0  0  0  0  0  0  0  0
   -3.9539    1.0193    0.0000 C   0  0  0  0  0  0  0  0  0  0  0  0
   -3.4701   -0.4005    0.0000 C   0  0  0  0  0  0  0  0  0  0  0  0
   -1.9986   -0.6914    0.0000 N   0  0  0  0  0  0  0  0  0  0  0  0
   -1.5147   -2.1112    0.0000 C   0  0  0  0  0  0  0  0  0  0  0  0
   -0.0432   -2.4021    0.0000 C   0  0  0  0  0  0  0  0  0  0  0  0
    0.9445   -1.2732    0.0000 C   0  0  0  0  0  0  0  0  0  0  0  0
    1.4283   -2.6930    0.0000 C   0  0  0  0  0  0  0  0  0  0  0  0
    1.9322   -0.1443    0.0000 C   0  0  0  0  0  0  0  0  0  0  0  0
    3.4037   -0.4352    0.0000 C   0  0  0  0  0  0  0  0  0  0  0  0
    4.3914    0.6937    0.0000 C   0  0  0  0  0  0  0  0  0  0  0  0
    5.8629    0.4028    0.0000 O   0  0  0  0  0  0  0  0  0  0  0  0
    3.9076    2.1135    0.0000 C   0  0  0  0  0  0  0  0  0  0  0  0
    2.4361    2.4045    0.0000 C   0  0  0  0  0  0  0  0  0  0  0  0
    1.4484    1.2755    0.0000 C   0  0  0  0  0  0  0  0  0  0  0  0
   -0.0232    1.5664    0.0000 C   0  0  0  0  0  0  0  0  0  0  0  0
   -1.0109    0.4375    0.0000 C   0  0  0  0  0  0  0  0  0  0  0  0
   -0.5270   -0.9823    0.0000 C   0  0  0  0  0  0  0  0  0  0  0  0
   -0.8912   -1.6914    0.0000 C   0  0  0  0  0  0  0  0  0  0  0  0
  1  2  3  0
  2  3  1  0
  3  4  1  0
  4  5  1  0
  5  6  1  0
  6  7  1  0
  7  8  1  0
  8  9  1  1
  8 10  1  0
 10 11  2  0
 11 12  1  0
 12 13  1  0
 12 14  2  0
 14 15  1  0
 15 16  2  0
 16 17  1  0
 17 18  1  0
 18 19  1  0
 19 20  1  6
 18  5  1  0
 19  8  1  0
 16 10  1  0
M  END
>  <ChemBL_ID>  (844) 
CHEMBL2368124

>  <Compound_Key>  (844) 
22

>  <Ki>  (844) 
27000.0

>  <database>  (844) 
Literature

>  <Assay_ChEMBL_ID>  (844) 
CHEMBL809859

>  <Document_ChEMBL_ID>  (844) 
CHEMBL1133570

$$$$

     RDKit          2D

 20 22  0  0  0  0  0  0  0  0999 V2000
   -6.0487    2.4631    0.0000 C   0  0  0  0  0  0  0  0  0  0  0  0
   -5.5154    1.0611    0.0000 C   0  0  0  0  0  0  0  0  0  0  0  0
   -4.0346    0.8220    0.0000 C   0  0  0  0  0  0  0  0  0  0  0  0
   -3.5013   -0.5800    0.0000 C   0  0  0  0  0  0  0  0  0  0  0  0
   -2.0205   -0.8192    0.0000 N   0  0  0  0  0  0  0  0  0  0  0  0
   -1.4872   -2.2212    0.0000 C   0  0  0  0  0  0  0  0  0  0  0  0
   -0.0063   -2.4603    0.0000 C   0  0  0  0  0  0  0  0  0  0  0  0
    0.9412   -1.2975    0.0000 C   0  0  0  0  0  0  0  0  0  0  0  0
    1.4745   -2.6995    0.0000 C   0  0  0  0  0  0  0  0  0  0  0  0
    1.8887   -0.1346    0.0000 C   0  0  0  0  0  0  0  0  0  0  0  0
    3.3695   -0.3737    0.0000 C   0  0  0  0  0  0  0  0  0  0  0  0
    4.3170    0.7891    0.0000 C   0  0  0  0  0  0  0  0  0  0  0  0
    5.7978    0.5500    0.0000 O   0  0  0  0  0  0  0  0  0  0  0  0
    3.7837    2.1911    0.0000 C   0  0  0  0  0  0  0  0  0  0  0  0
    2.3029    2.4302    0.0000 C   0  0  0  0  0  0  0  0  0  0  0  0
    1.3554    1.2674    0.0000 C   0  0  0  0  0  0  0  0  0  0  0  0
   -0.1254    1.5065    0.0000 C   0  0  0  0  0  0  0  0  0  0  0  0
   -1.0729    0.3437    0.0000 C   0  0  0  0  0  0  0  0  0  0  0  0
   -0.5396   -1.0583    0.0000 C   0  0  0  0  0  0  0  0  0  0  0  0
   -0.8787   -1.7798    0.0000 C   0  0  0  0  0  0  0  0  0  0  0  0
  1  2  2  0
  2  3  1  0
  3  4  1  0
  4  5  1  0
  5  6  1  0
  6  7  1  0
  7  8  1  0
  8  9  1  6
  8 10  1  0
 10 11  2  0
 11 12  1  0
 12 13  1  0
 12 14  2  0
 14 15  1  0
 15 16  2  0
 16 17  1  0
 17 18  1  0
 18 19  1  0
 19 20  1  1
 18  5  1  0
 19  8  1  0
 16 10  1  0
M  END
>  <ChemBL_ID>  (845) 
CHEMBL2368123

>  <Compound_Key>  (845) 
9

>  <Ki>  (845) 
620.0

>  <database>  (845) 
CHEMBL

>  <Assay_ChEMBL_ID>  (845) 
CHEMBL809859

>  <Document_ChEMBL_ID>  (845) 
CHEMBL1133570

$$$$

     RDKit          2D

 20 22  0  0  0  0  0  0  0  0999 V2000
   -6.0487    2.4631    0.0000 C   0  0  0  0  0  0  0  0  0  0  0  0
   -5.5154    1.0611    0.0000 C   0  0  0  0  0  0  0  0  0  0  0  0
   -4.0346    0.8220    0.0000 C   0  0  0  0  0  0  0  0  0  0  0  0
   -3.5013   -0.5800    0.0000 C   0  0  0  0  0  0  0  0  0  0  0  0
   -2.0205   -0.8192    0.0000 N   0  0  0  0  0  0  0  0  0  0  0  0
   -1.4872   -2.2212    0.0000 C   0  0  0  0  0  0  0  0  0  0  0  0
   -0.0063   -2.4603    0.0000 C   0  0  0  0  0  0  0  0  0  0  0  0
    0.9412   -1.2975    0.0000 C   0  0  0  0  0  0  0  0  0  0  0  0
    1.4745   -2.6995    0.0000 C   0  0  0  0  0  0  0  0  0  0  0  0
    1.8887   -0.1346    0.0000 C   0  0  0  0  0  0  0  0  0  0  0  0
    3.3695   -0.3737    0.0000 C   0  0  0  0  0  0  0  0  0  0  0  0
    4.3170    0.7891    0.0000 C   0  0  0  0  0  0  0  0  0  0  0  0
    5.7978    0.5500    0.0000 O   0  0  0  0  0  0  0  0  0  0  0  0
    3.7837    2.1911    0.0000 C   0  0  0  0  0  0  0  0  0  0  0  0
    2.3029    2.4302    0.0000 C   0  0  0  0  0  0  0  0  0  0  0  0
    1.3554    1.2674    0.0000 C   0  0  0  0  0  0  0  0  0  0  0  0
   -0.1254    1.5065    0.0000 C   0  0  0  0  0  0  0  0  0  0  0  0
   -1.0729    0.3437    0.0000 C   0  0  0  0  0  0  0  0  0  0  0  0
   -0.5396   -1.0583    0.0000 C   0  0  0  0  0  0  0  0  0  0  0  0
   -0.8787   -1.7798    0.0000 C   0  0  0  0  0  0  0  0  0  0  0  0
  1  2  2  0
  2  3  1  0
  3  4  1  0
  4  5  1  0
  5  6  1  0
  6  7  1  0
  7  8  1  0
  8  9  1  1
  8 10  1  0
 10 11  2  0
 11 12  1  0
 12 13  1  0
 12 14  2  0
 14 15  1  0
 15 16  2  0
 16 17  1  0
 17 18  1  0
 18 19  1  0
 19 20  1  6
 18  5  1  0
 19  8  1  0
 16 10  1  0
M  END
>  <ChemBL_ID>  (846) 
CHEMBL2368123

>  <Compound_Key>  (846) 
24

>  <Ki>  (846) 
2500.0

>  <database>  (846) 
Literature

>  <Assay_ChEMBL_ID>  (846) 
CHEMBL809859

>  <Document_ChEMBL_ID>  (846) 
CHEMBL1133570

$$$$

     RDKit          2D

 26 29  0  0  0  0  0  0  0  0999 V2000
    2.0979   -2.9948    0.0000 C   0  0  0  0  0  0  0  0  0  0  0  0
    0.7867   -2.2662    0.0000 N   0  0  0  0  0  0  0  0  0  0  0  0
   -0.4998   -3.0375    0.0000 C   0  0  0  0  0  0  0  0  0  0  0  0
   -1.8110   -2.3089    0.0000 C   0  0  0  0  0  0  0  0  0  0  0  0
   -1.8356   -0.8091    0.0000 C   0  0  0  0  0  0  0  0  0  0  0  0
   -3.1468   -0.0805    0.0000 C   0  0  0  0  0  0  0  0  0  0  0  0
   -3.1714    1.4193    0.0000 C   0  0  0  0  0  0  0  0  0  0  0  0
   -4.4826    2.1479    0.0000 C   0  0  0  0  0  0  0  0  0  0  0  0
   -5.7691    1.3767    0.0000 C   0  0  0  0  0  0  0  0  0  0  0  0
   -5.7445   -0.1231    0.0000 C   0  0  0  0  0  0  0  0  0  0  0  0
   -7.0311   -0.8944    0.0000 O   0  0  0  0  0  0  0  0  0  0  0  0
   -4.4333   -0.8517    0.0000 C   0  0  0  0  0  0  0  0  0  0  0  0
   -1.8602    0.6907    0.0000 C   0  0  0  0  0  0  0  0  0  0  0  0
   -0.5737    1.4619    0.0000 C   0  0  0  0  0  0  0  0  0  0  0  0
   -0.5983    2.9617    0.0000 O   0  0  0  0  0  0  0  0  0  0  0  0
    0.7375    0.7334    0.0000 C   0  0  0  0  0  0  0  0  0  0  0  0
    2.0241    1.5046    0.0000 C   0  0  0  0  0  0  0  0  0  0  0  0
    3.3352    0.7760    0.0000 C   0  0  0  0  0  0  0  0  0  0  0  0
    3.3599   -0.7238    0.0000 C   0  0  0  0  0  0  0  0  0  0  0  0
    4.6710   -1.4524    0.0000 C   0  0  0  0  0  0  0  0  0  0  0  0
    5.9576   -0.6812    0.0000 C   0  0  0  0  0  0  0  0  0  0  0  0
    5.9330    0.8186    0.0000 C   0  0  0  0  0  0  0  0  0  0  0  0
    7.2195    1.5899    0.0000 Cl  0  0  0  0  0  0  0  0  0  0  0  0
    4.6218    1.5472    0.0000 C   0  0  0  0  0  0  0  0  0  0  0  0
    0.7621   -0.7664    0.0000 C   0  0  0  0  0  0  0  0  0  0  0  0
   -0.5490   -0.0379    0.0000 C   0  0  0  0  0  0  0  0  0  0  0  0
  1  2  1  0
  2  3  1  0
  3  4  1  0
  4  5  1  0
  5  6  1  1
  6  7  2  0
  7  8  1  0
  8  9  2  0
  9 10  1  0
 10 11  1  0
 10 12  2  0
  5 13  1  0
 13 14  1  0
 14 15  2  0
 14 16  1  0
 16 17  2  0
 17 18  1  0
 18 19  2  0
 19 20  1  0
 20 21  2  0
 21 22  1  0
 22 23  1  0
 22 24  2  0
 16 25  1  0
 25 26  1  0
 25  2  1  6
 26  5  1  0
 12  6  1  0
 24 18  1  0
M  END
>  <ChemBL_ID>  (847) 
CHEMBL146659

>  <Compound_Key>  (847) 
(+)-7

>  <Ki>  (847) 
22.4

>  <database>  (847) 
SRSLDB

>  <Assay_ChEMBL_ID>  (847) 
CHEMBL809526

>  <Document_ChEMBL_ID>  (847) 
CHEMBL1128667

$$$$

     RDKit          2D

 26 29  0  0  0  0  0  0  0  0999 V2000
    2.0979   -2.9948    0.0000 C   0  0  0  0  0  0  0  0  0  0  0  0
    0.7867   -2.2662    0.0000 N   0  0  0  0  0  0  0  0  0  0  0  0
   -0.4998   -3.0375    0.0000 C   0  0  0  0  0  0  0  0  0  0  0  0
   -1.8110   -2.3089    0.0000 C   0  0  0  0  0  0  0  0  0  0  0  0
   -1.8356   -0.8091    0.0000 C   0  0  0  0  0  0  0  0  0  0  0  0
   -3.1468   -0.0805    0.0000 C   0  0  0  0  0  0  0  0  0  0  0  0
   -3.1714    1.4193    0.0000 C   0  0  0  0  0  0  0  0  0  0  0  0
   -4.4826    2.1479    0.0000 C   0  0  0  0  0  0  0  0  0  0  0  0
   -5.7691    1.3767    0.0000 C   0  0  0  0  0  0  0  0  0  0  0  0
   -5.7445   -0.1231    0.0000 C   0  0  0  0  0  0  0  0  0  0  0  0
   -7.0311   -0.8944    0.0000 O   0  0  0  0  0  0  0  0  0  0  0  0
   -4.4333   -0.8517    0.0000 C   0  0  0  0  0  0  0  0  0  0  0  0
   -1.8602    0.6907    0.0000 C   0  0  0  0  0  0  0  0  0  0  0  0
   -0.5737    1.4619    0.0000 C   0  0  0  0  0  0  0  0  0  0  0  0
   -0.5983    2.9617    0.0000 O   0  0  0  0  0  0  0  0  0  0  0  0
    0.7375    0.7334    0.0000 C   0  0  0  0  0  0  0  0  0  0  0  0
    2.0241    1.5046    0.0000 C   0  0  0  0  0  0  0  0  0  0  0  0
    3.3352    0.7760    0.0000 C   0  0  0  0  0  0  0  0  0  0  0  0
    3.3599   -0.7238    0.0000 C   0  0  0  0  0  0  0  0  0  0  0  0
    4.6710   -1.4524    0.0000 C   0  0  0  0  0  0  0  0  0  0  0  0
    5.9576   -0.6812    0.0000 C   0  0  0  0  0  0  0  0  0  0  0  0
    5.9330    0.8186    0.0000 C   0  0  0  0  0  0  0  0  0  0  0  0
    7.2195    1.5899    0.0000 Cl  0  0  0  0  0  0  0  0  0  0  0  0
    4.6218    1.5472    0.0000 C   0  0  0  0  0  0  0  0  0  0  0  0
    0.7621   -0.7664    0.0000 C   0  0  0  0  0  0  0  0  0  0  0  0
   -0.5490   -0.0379    0.0000 C   0  0  0  0  0  0  0  0  0  0  0  0
  1  2  1  0
  2  3  1  0
  3  4  1  0
  4  5  1  0
  5  6  1  6
  6  7  2  0
  7  8  1  0
  8  9  2  0
  9 10  1  0
 10 11  1  0
 10 12  2  0
  5 13  1  0
 13 14  1  0
 14 15  2  0
 14 16  1  0
 16 17  2  0
 17 18  1  0
 18 19  2  0
 19 20  1  0
 20 21  2  0
 21 22  1  0
 22 23  1  0
 22 24  2  0
 16 25  1  0
 25 26  1  0
 25  2  1  1
 26  5  1  0
 12  6  1  0
 24 18  1  0
M  END
>  <ChemBL_ID>  (848) 
CHEMBL146659

>  <Compound_Key>  (848) 
(-)-7

>  <Ki>  (848) 
123.0

>  <database>  (848) 
CHEMBL

>  <Assay_ChEMBL_ID>  (848) 
CHEMBL809526

>  <Document_ChEMBL_ID>  (848) 
CHEMBL1128667

$$$$

     RDKit          2D

 26 29  0  0  0  0  0  0  0  0999 V2000
    2.0979   -2.9948    0.0000 C   0  0  0  0  0  0  0  0  0  0  0  0
    0.7867   -2.2662    0.0000 N   0  0  0  0  0  0  0  0  0  0  0  0
   -0.4998   -3.0375    0.0000 C   0  0  0  0  0  0  0  0  0  0  0  0
   -1.8110   -2.3089    0.0000 C   0  0  0  0  0  0  0  0  0  0  0  0
   -1.8356   -0.8091    0.0000 C   0  0  0  0  0  0  0  0  0  0  0  0
   -3.1468   -0.0805    0.0000 C   0  0  0  0  0  0  0  0  0  0  0  0
   -3.1714    1.4193    0.0000 C   0  0  0  0  0  0  0  0  0  0  0  0
   -4.4826    2.1479    0.0000 C   0  0  0  0  0  0  0  0  0  0  0  0
   -5.7691    1.3767    0.0000 C   0  0  0  0  0  0  0  0  0  0  0  0
   -5.7445   -0.1231    0.0000 C   0  0  0  0  0  0  0  0  0  0  0  0
   -7.0311   -0.8944    0.0000 O   0  0  0  0  0  0  0  0  0  0  0  0
   -4.4333   -0.8517    0.0000 C   0  0  0  0  0  0  0  0  0  0  0  0
   -1.8602    0.6907    0.0000 C   0  0  0  0  0  0  0  0  0  0  0  0
   -0.5737    1.4619    0.0000 C   0  0  0  0  0  0  0  0  0  0  0  0
   -0.5983    2.9617    0.0000 O   0  0  0  0  0  0  0  0  0  0  0  0
    0.7375    0.7334    0.0000 C   0  0  0  0  0  0  0  0  0  0  0  0
    2.0241    1.5046    0.0000 C   0  0  0  0  0  0  0  0  0  0  0  0
    3.3352    0.7760    0.0000 C   0  0  0  0  0  0  0  0  0  0  0  0
    3.3599   -0.7238    0.0000 C   0  0  0  0  0  0  0  0  0  0  0  0
    4.6710   -1.4524    0.0000 C   0  0  0  0  0  0  0  0  0  0  0  0
    5.9576   -0.6812    0.0000 C   0  0  0  0  0  0  0  0  0  0  0  0
    5.9330    0.8186    0.0000 C   0  0  0  0  0  0  0  0  0  0  0  0
    7.2195    1.5899    0.0000 Cl  0  0  0  0  0  0  0  0  0  0  0  0
    4.6218    1.5472    0.0000 C   0  0  0  0  0  0  0  0  0  0  0  0
    0.7621   -0.7664    0.0000 C   0  0  0  0  0  0  0  0  0  0  0  0
   -0.5490   -0.0379    0.0000 C   0  0  0  0  0  0  0  0  0  0  0  0
  1  2  1  0
  2  3  1  0
  3  4  1  0
  4  5  1  0
  5  6  1  0
  6  7  2  0
  7  8  1  0
  8  9  2  0
  9 10  1  0
 10 11  1  0
 10 12  2  0
  5 13  1  0
 13 14  1  0
 14 15  2  0
 14 16  1  0
 16 17  2  0
 17 18  1  0
 18 19  2  0
 19 20  1  0
 20 21  2  0
 21 22  1  0
 22 23  1  0
 22 24  2  0
 16 25  1  0
 25 26  1  0
 25  2  1  0
 26  5  1  0
 12  6  1  0
 24 18  1  0
M  END
>  <ChemBL_ID>  (849) 
CHEMBL146659

>  <Compound_Key>  (849) 
7

>  <Ki>  (849) 
34.5

>  <database>  (849) 
CHEMBL

>  <Assay_ChEMBL_ID>  (849) 
CHEMBL809526

>  <Document_ChEMBL_ID>  (849) 
CHEMBL1128667

$$$$

     RDKit          2D

 26 29  0  0  0  0  0  0  0  0999 V2000
    2.2834   -2.7333    0.0000 C   0  0  0  0  0  0  0  0  0  0  0  0
    0.9265   -2.0938    0.0000 N   0  0  0  0  0  0  0  0  0  0  0  0
   -0.3058   -2.9490    0.0000 C   0  0  0  0  0  0  0  0  0  0  0  0
   -1.6626   -2.3095    0.0000 C   0  0  0  0  0  0  0  0  0  0  0  0
   -1.7871   -0.8147    0.0000 C   0  0  0  0  0  0  0  0  0  0  0  0
   -3.1440   -0.1752    0.0000 C   0  0  0  0  0  0  0  0  0  0  0  0
   -3.2685    1.3197    0.0000 C   0  0  0  0  0  0  0  0  0  0  0  0
   -4.6254    1.9592    0.0000 C   0  0  0  0  0  0  0  0  0  0  0  0
   -5.8577    1.1039    0.0000 C   0  0  0  0  0  0  0  0  0  0  0  0
   -5.7331   -0.3909    0.0000 C   0  0  0  0  0  0  0  0  0  0  0  0
   -6.9654   -1.2462    0.0000 O   0  0  0  0  0  0  0  0  0  0  0  0
   -4.3763   -1.0304    0.0000 C   0  0  0  0  0  0  0  0  0  0  0  0
   -1.9117    0.6801    0.0000 C   0  0  0  0  0  0  0  0  0  0  0  0
   -0.6794    1.5354    0.0000 C   0  0  0  0  0  0  0  0  0  0  0  0
   -0.8040    3.0302    0.0000 O   0  0  0  0  0  0  0  0  0  0  0  0
    0.6774    0.8959    0.0000 C   0  0  0  0  0  0  0  0  0  0  0  0
    1.9097    1.7512    0.0000 C   0  0  0  0  0  0  0  0  0  0  0  0
    3.2665    1.1116    0.0000 C   0  0  0  0  0  0  0  0  0  0  0  0
    3.3911   -0.3832    0.0000 C   0  0  0  0  0  0  0  0  0  0  0  0
    4.7479   -1.0227    0.0000 C   0  0  0  0  0  0  0  0  0  0  0  0
    5.9802   -0.1674    0.0000 C   0  0  0  0  0  0  0  0  0  0  0  0
    7.3370   -0.8070    0.0000 I   0  0  0  0  0  0  0  0  0  0  0  0
    5.8556    1.3274    0.0000 C   0  0  0  0  0  0  0  0  0  0  0  0
    4.4988    1.9669    0.0000 C   0  0  0  0  0  0  0  0  0  0  0  0
    0.8020   -0.5989    0.0000 C   0  0  0  0  0  0  0  0  0  0  0  0
   -0.5549    0.0406    0.0000 C   0  0  0  0  0  0  0  0  0  0  0  0
  1  2  1  0
  2  3  1  0
  3  4  1  0
  4  5  1  0
  5  6  1  1
  6  7  2  0
  7  8  1  0
  8  9  2  0
  9 10  1  0
 10 11  1  0
 10 12  2  0
  5 13  1  0
 13 14  1  0
 14 15  2  0
 14 16  1  0
 16 17  2  0
 17 18  1  0
 18 19  2  0
 19 20  1  0
 20 21  2  0
 21 22  1  0
 21 23  1  0
 23 24  2  0
 16 25  1  0
 25 26  1  0
 25  2  1  6
 26  5  1  0
 12  6  1  0
 24 18  1  0
M  END
>  <ChemBL_ID>  (850) 
CHEMBL145422

>  <Compound_Key>  (850) 
(+)-8

>  <Ki>  (850) 
52.6

>  <database>  (850) 
SRSLDB

$$$$

     RDKit          2D

 26 29  0  0  0  0  0  0  0  0999 V2000
    2.2834   -2.7333    0.0000 C   0  0  0  0  0  0  0  0  0  0  0  0
    0.9265   -2.0938    0.0000 N   0  0  0  0  0  0  0  0  0  0  0  0
   -0.3058   -2.9490    0.0000 C   0  0  0  0  0  0  0  0  0  0  0  0
   -1.6626   -2.3095    0.0000 C   0  0  0  0  0  0  0  0  0  0  0  0
   -1.7871   -0.8147    0.0000 C   0  0  0  0  0  0  0  0  0  0  0  0
   -3.1440   -0.1752    0.0000 C   0  0  0  0  0  0  0  0  0  0  0  0
   -3.2685    1.3197    0.0000 C   0  0  0  0  0  0  0  0  0  0  0  0
   -4.6254    1.9592    0.0000 C   0  0  0  0  0  0  0  0  0  0  0  0
   -5.8577    1.1039    0.0000 C   0  0  0  0  0  0  0  0  0  0  0  0
   -5.7331   -0.3909    0.0000 C   0  0  0  0  0  0  0  0  0  0  0  0
   -6.9654   -1.2462    0.0000 O   0  0  0  0  0  0  0  0  0  0  0  0
   -4.3763   -1.0304    0.0000 C   0  0  0  0  0  0  0  0  0  0  0  0
   -1.9117    0.6801    0.0000 C   0  0  0  0  0  0  0  0  0  0  0  0
   -0.6794    1.5354    0.0000 C   0  0  0  0  0  0  0  0  0  0  0  0
   -0.8040    3.0302    0.0000 O   0  0  0  0  0  0  0  0  0  0  0  0
    0.6774    0.8959    0.0000 C   0  0  0  0  0  0  0  0  0  0  0  0
    1.9097    1.7512    0.0000 C   0  0  0  0  0  0  0  0  0  0  0  0
    3.2665    1.1116    0.0000 C   0  0  0  0  0  0  0  0  0  0  0  0
    3.3911   -0.3832    0.0000 C   0  0  0  0  0  0  0  0  0  0  0  0
    4.7479   -1.0227    0.0000 C   0  0  0  0  0  0  0  0  0  0  0  0
    5.9802   -0.1674    0.0000 C   0  0  0  0  0  0  0  0  0  0  0  0
    7.3370   -0.8070    0.0000 I   0  0  0  0  0  0  0  0  0  0  0  0
    5.8556    1.3274    0.0000 C   0  0  0  0  0  0  0  0  0  0  0  0
    4.4988    1.9669    0.0000 C   0  0  0  0  0  0  0  0  0  0  0  0
    0.8020   -0.5989    0.0000 C   0  0  0  0  0  0  0  0  0  0  0  0
   -0.5549    0.0406    0.0000 C   0  0  0  0  0  0  0  0  0  0  0  0
  1  2  1  0
  2  3  1  0
  3  4  1  0
  4  5  1  0
  5  6  1  0
  6  7  2  0
  7  8  1  0
  8  9  2  0
  9 10  1  0
 10 11  1  0
 10 12  2  0
  5 13  1  0
 13 14  1  0
 14 15  2  0
 14 16  1  0
 16 17  2  0
 17 18  1  0
 18 19  2  0
 19 20  1  0
 20 21  2  0
 21 22  1  0
 21 23  1  0
 23 24  2  0
 16 25  1  0
 25 26  1  0
 25  2  1  0
 26  5  1  0
 12  6  1  0
 24 18  1  0
M  END
>  <ChemBL_ID>  (851) 
CHEMBL145422

>  <Compound_Key>  (851) 
(+)-8

>  <Ki>  (851) 
52.6

>  <database>  (851) 
CHEMBL

>  <Assay_ChEMBL_ID>  (851) 
CHEMBL809526

>  <Document_ChEMBL_ID>  (851) 
CHEMBL1128667

$$$$

     RDKit          2D

 27 30  0  0  0  0  0  0  0  0999 V2000
    8.2284    0.6808    0.0000 C   0  0  0  0  0  0  0  0  0  0  0  0
    6.9306    1.4330    0.0000 O   0  0  0  0  0  0  0  0  0  0  0  0
    5.6303    0.6851    0.0000 C   0  0  0  0  0  0  0  0  0  0  0  0
    5.6278   -0.8149    0.0000 C   0  0  0  0  0  0  0  0  0  0  0  0
    4.3275   -1.5627    0.0000 C   0  0  0  0  0  0  0  0  0  0  0  0
    3.0297   -0.8106    0.0000 C   0  0  0  0  0  0  0  0  0  0  0  0
    3.0322    0.6894    0.0000 C   0  0  0  0  0  0  0  0  0  0  0  0
    1.7344    1.4416    0.0000 C   0  0  0  0  0  0  0  0  0  0  0  0
    0.4342    0.6937    0.0000 C   0  0  0  0  0  0  0  0  0  0  0  0
   -0.8636    1.4459    0.0000 C   0  0  0  0  0  0  0  0  0  0  0  0
   -0.8611    2.9459    0.0000 O   0  0  0  0  0  0  0  0  0  0  0  0
   -2.1639    0.6980    0.0000 C   0  0  0  0  0  0  0  0  0  0  0  0
   -2.1664   -0.8020    0.0000 C   0  0  0  0  0  0  0  0  0  0  0  0
   -3.4642   -0.0498    0.0000 C   0  0  0  0  0  0  0  0  0  0  0  0
   -3.4617    1.4502    0.0000 C   0  0  0  0  0  0  0  0  0  0  0  0
   -4.7595    2.2023    0.0000 C   0  0  0  0  0  0  0  0  0  0  0  0
   -6.0598    1.4545    0.0000 C   0  0  0  0  0  0  0  0  0  0  0  0
   -6.0623   -0.0455    0.0000 C   0  0  0  0  0  0  0  0  0  0  0  0
   -7.3625   -0.7933    0.0000 O   0  0  0  0  0  0  0  0  0  0  0  0
   -4.7645   -0.7977    0.0000 C   0  0  0  0  0  0  0  0  0  0  0  0
   -2.1689   -2.3020    0.0000 C   0  0  0  0  0  0  0  0  0  0  0  0
   -0.8711   -3.0541    0.0000 C   0  0  0  0  0  0  0  0  0  0  0  0
    0.4292   -2.3063    0.0000 N   0  0  0  0  0  0  0  0  0  0  0  0
    1.7270   -3.0584    0.0000 C   0  0  0  0  0  0  0  0  0  0  0  0
    0.4317   -0.8063    0.0000 C   0  0  0  0  0  0  0  0  0  0  0  0
   -0.8661   -0.0541    0.0000 C   0  0  0  0  0  0  0  0  0  0  0  0
    4.3325    1.4373    0.0000 C   0  0  0  0  0  0  0  0  0  0  0  0
  1  2  1  0
  2  3  1  0
  3  4  2  0
  4  5  1  0
  5  6  2  0
  6  7  1  0
  7  8  1  0
  8  9  2  0
  9 10  1  0
 10 11  2  0
 10 12  1  0
 12 13  1  0
 13 14  1  1
 14 15  2  0
 15 16  1  0
 16 17  2  0
 17 18  1  0
 18 19  1  0
 18 20  2  0
 13 21  1  0
 21 22  1  0
 22 23  1  0
 23 24  1  0
 25 23  1  6
 25 26  1  0
  7 27  2  0
 27  3  1  0
 25  9  1  0
 26 13  1  0
 20 14  1  0
M  END
>  <ChemBL_ID>  (852) 
CHEMBL145296

>  <Compound_Key>  (852) 
(+)-6

>  <Ki>  (852) 
38.2

>  <database>  (852) 
SRSLDB

$$$$

     RDKit          2D

 24 26  0  0  0  0  0  0  0  0999 V2000
   -9.9598   -1.0353    0.0000 N   0  0  0  0  0  0  0  0  0  0  0  0
   -8.5065   -0.6641    0.0000 C   0  0  0  0  0  0  0  0  0  0  0  0
   -7.0531   -0.2930    0.0000 C   0  0  0  0  0  0  0  0  0  0  0  0
   -6.6479    1.1513    0.0000 C   0  0  0  0  0  0  0  0  0  0  0  0
   -5.1945    1.5224    0.0000 C   0  0  0  0  0  0  0  0  0  0  0  0
   -4.1464    0.4494    0.0000 C   0  0  0  0  0  0  0  0  0  0  0  0
   -2.6930    0.8206    0.0000 O   0  0  0  0  0  0  0  0  0  0  0  0
   -1.6449   -0.2525    0.0000 C   0  0  0  0  0  0  0  0  0  0  0  0
   -0.1916    0.1187    0.0000 C   0  0  0  0  0  0  0  0  0  0  0  0
    0.8565   -0.9544    0.0000 C   0  0  0  0  0  0  0  0  0  0  0  0
    2.3099   -0.5832    0.0000 C   0  0  0  0  0  0  0  0  0  0  0  0
    2.7151    0.8610    0.0000 N   0  0  0  0  0  0  0  0  0  0  0  0
    4.1685    1.2322    0.0000 C   0  0  0  0  0  0  0  0  0  0  0  0
    5.2166    0.1591    0.0000 C   0  0  0  0  0  0  0  0  0  0  0  0
    4.8114   -1.2851    0.0000 C   0  0  0  0  0  0  0  0  0  0  0  0
    5.8595   -2.3582    0.0000 C   0  0  0  0  0  0  0  0  0  0  0  0
    7.3128   -1.9870    0.0000 C   0  0  0  0  0  0  0  0  0  0  0  0
    7.7181   -0.5428    0.0000 C   0  0  0  0  0  0  0  0  0  0  0  0
    6.6700    0.5303    0.0000 C   0  0  0  0  0  0  0  0  0  0  0  0
    7.0752    1.9745    0.0000 Br  0  0  0  0  0  0  0  0  0  0  0  0
    1.6670    1.9341    0.0000 C   0  0  0  0  0  0  0  0  0  0  0  0
    0.2137    1.5629    0.0000 C   0  0  0  0  0  0  0  0  0  0  0  0
   -4.5516   -0.9948    0.0000 C   0  0  0  0  0  0  0  0  0  0  0  0
   -6.0050   -1.3660    0.0000 C   0  0  0  0  0  0  0  0  0  0  0  0
  1  2  3  0
  2  3  1  0
  3  4  2  0
  4  5  1  0
  5  6  2  0
  6  7  1  0
  7  8  1  0
  8  9  1  0
  9 10  1  0
 10 11  1  0
 11 12  1  0
 12 13  1  0
 13 14  1  0
 14 15  2  0
 15 16  1  0
 16 17  2  0
 17 18  1  0
 18 19  2  0
 19 20  1  0
 12 21  1  0
 21 22  1  0
  6 23  1  0
 23 24  2  0
 24  3  1  0
 22  9  1  0
 19 14  1  0
M  END
>  <ChemBL_ID>  (853) 
CHEMBL295661

>  <Compound_Key>  (853) 
5

>  <Ki>  (853) 
31.1

>  <database>  (853) 
CHEMBL

>  <Assay_ChEMBL_ID>  (853) 
CHEMBL811511

>  <Document_ChEMBL_ID>  (853) 
CHEMBL1130041

$$$$

     RDKit          2D

 24 26  0  0  0  0  0  0  0  0999 V2000
   -1.1606   -1.2122    0.0000 N   0  0  0  0  0  0  0  0  0  0  0  0
   -2.6560   -1.0951    0.0000 C   0  0  0  0  0  0  0  0  0  0  0  0
   -4.1515   -0.9781    0.0000 C   0  0  0  0  0  0  0  0  0  0  0  0
   -5.0005   -2.2147    0.0000 C   0  0  0  0  0  0  0  0  0  0  0  0
   -6.4960   -2.0976    0.0000 C   0  0  0  0  0  0  0  0  0  0  0  0
   -7.1423   -0.7440    0.0000 C   0  0  0  0  0  0  0  0  0  0  0  0
   -6.2933    0.4925    0.0000 C   0  0  0  0  0  0  0  0  0  0  0  0
   -4.7978    0.3755    0.0000 C   0  0  0  0  0  0  0  0  0  0  0  0
   -3.9488    1.6121    0.0000 C   0  0  0  0  0  0  0  0  0  0  0  0
   -2.4533    1.4950    0.0000 N   0  0  0  0  0  0  0  0  0  0  0  0
   -1.8070    0.1414    0.0000 C   0  0  0  0  0  0  0  0  0  0  0  0
   -0.3115    0.0244    0.0000 C   0  0  0  0  0  0  0  0  0  0  0  0
    0.5375    1.2609    0.0000 C   0  0  0  0  0  0  0  0  0  0  0  0
    2.0330    1.1439    0.0000 C   0  0  0  0  0  0  0  0  0  0  0  0
    2.6793   -0.2097    0.0000 O   0  0  0  0  0  0  0  0  0  0  0  0
    4.1747   -0.3267    0.0000 C   0  0  0  0  0  0  0  0  0  0  0  0
    4.8211   -1.6803    0.0000 C   0  0  0  0  0  0  0  0  0  0  0  0
    6.3165   -1.7974    0.0000 C   0  0  0  0  0  0  0  0  0  0  0  0
    7.1656   -0.5608    0.0000 C   0  0  0  0  0  0  0  0  0  0  0  0
    8.6610   -0.6778    0.0000 I   0  0  0  0  0  0  0  0  0  0  0  0
    6.5192    0.7928    0.0000 C   0  0  0  0  0  0  0  0  0  0  0  0
    5.0238    0.9098    0.0000 C   0  0  0  0  0  0  0  0  0  0  0  0
   -0.1088    2.6145    0.0000 C   0  0  0  0  0  0  0  0  0  0  0  0
   -1.6043    2.7316    0.0000 C   0  0  0  0  0  0  0  0  0  0  0  0
  1  2  3  0
  2  3  1  0
  3  4  2  0
  4  5  1  0
  5  6  2  0
  6  7  1  0
  7  8  2  0
  8  9  1  0
  9 10  1  0
 10 11  1  0
 11 12  1  0
 12 13  1  0
 13 14  1  0
 14 15  1  0
 15 16  1  0
 16 17  2  0
 17 18  1  0
 18 19  2  0
 19 20  1  0
 19 21  1  0
 21 22  2  0
 13 23  1  0
 23 24  1  0
  8  3  1  0
 24 10  1  0
 22 16  1  0
M  END
>  <ChemBL_ID>  (854) 
CHEMBL295626

>  <Compound_Key>  (854) 
12

>  <Ki>  (854) 
142.0

>  <database>  (854) 
CHEMBL

>  <Assay_ChEMBL_ID>  (854) 
CHEMBL811511

>  <Document_ChEMBL_ID>  (854) 
CHEMBL1130041

$$$$

     RDKit          2D

 27 29  0  0  0  0  0  0  0  0999 V2000
   -8.1239   -3.0515    0.0000 F   0  0  0  0  0  0  0  0  0  0  0  0
   -7.2476   -1.8340    0.0000 C   0  0  0  0  0  0  0  0  0  0  0  0
   -7.8639   -0.4664    0.0000 C   0  0  0  0  0  0  0  0  0  0  0  0
   -6.9877    0.7510    0.0000 C   0  0  0  0  0  0  0  0  0  0  0  0
   -5.4952    0.6010    0.0000 C   0  0  0  0  0  0  0  0  0  0  0  0
   -4.6190    1.8184    0.0000 C   0  0  0  0  0  0  0  0  0  0  0  0
   -3.1265    1.6683    0.0000 N   0  0  0  0  0  0  0  0  0  0  0  0
   -2.5103    0.3008    0.0000 C   0  0  0  0  0  0  0  0  0  0  0  0
   -1.0178    0.1507    0.0000 C   0  0  0  0  0  0  0  0  0  0  0  0
   -0.1416    1.3682    0.0000 C   0  0  0  0  0  0  0  0  0  0  0  0
    1.3509    1.2181    0.0000 C   0  0  0  0  0  0  0  0  0  0  0  0
    1.9671   -0.1495    0.0000 O   0  0  0  0  0  0  0  0  0  0  0  0
    3.4596   -0.2995    0.0000 C   0  0  0  0  0  0  0  0  0  0  0  0
    4.0759   -1.6671    0.0000 C   0  0  0  0  0  0  0  0  0  0  0  0
    3.1997   -2.8846    0.0000 F   0  0  0  0  0  0  0  0  0  0  0  0
    5.5683   -1.8172    0.0000 C   0  0  0  0  0  0  0  0  0  0  0  0
    6.1846   -3.1847    0.0000 F   0  0  0  0  0  0  0  0  0  0  0  0
    6.4446   -0.5997    0.0000 C   0  0  0  0  0  0  0  0  0  0  0  0
    7.9370   -0.7498    0.0000 F   0  0  0  0  0  0  0  0  0  0  0  0
    5.8283    0.7679    0.0000 C   0  0  0  0  0  0  0  0  0  0  0  0
    6.7045    1.9853    0.0000 F   0  0  0  0  0  0  0  0  0  0  0  0
    4.3358    0.9179    0.0000 C   0  0  0  0  0  0  0  0  0  0  0  0
    3.7196    2.2855    0.0000 F   0  0  0  0  0  0  0  0  0  0  0  0
   -0.7579    2.7357    0.0000 C   0  0  0  0  0  0  0  0  0  0  0  0
   -2.2503    2.8858    0.0000 C   0  0  0  0  0  0  0  0  0  0  0  0
   -4.8790   -0.7666    0.0000 C   0  0  0  0  0  0  0  0  0  0  0  0
   -5.7552   -1.9841    0.0000 C   0  0  0  0  0  0  0  0  0  0  0  0
  1  2  1  0
  2  3  2  0
  3  4  1  0
  4  5  2  0
  5  6  1  0
  6  7  1  0
  7  8  1  0
  8  9  1  0
  9 10  1  0
 10 11  1  0
 11 12  1  0
 12 13  1  0
 13 14  2  0
 14 15  1  0
 14 16  1  0
 16 17  1  0
 16 18  2  0
 18 19  1  0
 18 20  1  0
 20 21  1  0
 20 22  2  0
 22 23  1  0
 10 24  1  0
 24 25  1  0
  5 26  1  0
 26 27  2  0
 27  2  1  0
 25  7  1  0
 22 13  1  0
M  END
>  <ChemBL_ID>  (855) 
CHEMBL287876

>  <Compound_Key>  (855) 
17

>  <Ki>  (855) 
4.3

>  <database>  (855) 
CHEMBL

>  <Assay_ChEMBL_ID>  (855) 
CHEMBL811511

>  <Document_ChEMBL_ID>  (855) 
CHEMBL1130041

$$$$

     RDKit          2D

 19 20  0  0  0  0  0  0  0  0999 V2000
   -8.4812    1.0768    0.0000 F   0  0  0  0  0  0  0  0  0  0  0  0
   -7.4700   -0.0311    0.0000 C   0  0  0  0  0  0  0  0  0  0  0  0
   -6.0049    0.2908    0.0000 C   0  0  0  0  0  0  0  0  0  0  0  0
   -4.9936   -0.8170    0.0000 C   0  0  0  0  0  0  0  0  0  0  0  0
   -3.5286   -0.4952    0.0000 N   0  0  0  0  0  0  0  0  0  0  0  0
   -3.0748    0.9345    0.0000 C   0  0  0  0  0  0  0  0  0  0  0  0
   -1.6097    1.2564    0.0000 C   0  0  0  0  0  0  0  0  0  0  0  0
   -0.5984    0.1485    0.0000 C   0  0  0  0  0  0  0  0  0  0  0  0
    0.8666    0.4704    0.0000 C   0  0  0  0  0  0  0  0  0  0  0  0
    1.8779   -0.6375    0.0000 O   0  0  0  0  0  0  0  0  0  0  0  0
    3.3430   -0.3156    0.0000 C   0  0  0  0  0  0  0  0  0  0  0  0
    4.3542   -1.4235    0.0000 C   0  0  0  0  0  0  0  0  0  0  0  0
    5.8193   -1.1016    0.0000 C   0  0  0  0  0  0  0  0  0  0  0  0
    6.2731    0.3281    0.0000 C   0  0  0  0  0  0  0  0  0  0  0  0
    7.7381    0.6500    0.0000 Br  0  0  0  0  0  0  0  0  0  0  0  0
    5.2618    1.4360    0.0000 C   0  0  0  0  0  0  0  0  0  0  0  0
    3.7967    1.1141    0.0000 C   0  0  0  0  0  0  0  0  0  0  0  0
   -1.0522   -1.2812    0.0000 C   0  0  0  0  0  0  0  0  0  0  0  0
   -2.5173   -1.6030    0.0000 C   0  0  0  0  0  0  0  0  0  0  0  0
  1  2  1  0
  2  3  1  0
  3  4  1  0
  4  5  1  0
  5  6  1  0
  6  7  1  0
  7  8  1  0
  8  9  1  0
  9 10  1  0
 10 11  1  0
 11 12  2  0
 12 13  1  0
 13 14  2  0
 14 15  1  0
 14 16  1  0
 16 17  2  0
  8 18  1  0
 18 19  1  0
 19  5  1  0
 17 11  1  0
M  END
>  <ChemBL_ID>  (856) 
CHEMBL45156

>  <Compound_Key>  (856) 
13

>  <Ki>  (856) 
13.1

>  <database>  (856) 
CHEMBL

>  <Assay_ChEMBL_ID>  (856) 
CHEMBL811511

>  <Document_ChEMBL_ID>  (856) 
CHEMBL1130041

$$$$

     RDKit          2D

 19 21  0  0  0  0  0  0  0  0999 V2000
   -7.6093   -0.7323    0.0000 Br  0  0  0  0  0  0  0  0  0  0  0  0
   -6.1512   -0.3800    0.0000 C   0  0  0  0  0  0  0  0  0  0  0  0
   -5.7274    1.0589    0.0000 C   0  0  0  0  0  0  0  0  0  0  0  0
   -4.2693    1.4112    0.0000 C   0  0  0  0  0  0  0  0  0  0  0  0
   -3.2352    0.3247    0.0000 C   0  0  0  0  0  0  0  0  0  0  0  0
   -1.7772    0.6771    0.0000 O   0  0  0  0  0  0  0  0  0  0  0  0
   -0.7430   -0.4094    0.0000 C   0  0  0  0  0  0  0  0  0  0  0  0
    0.7150   -0.0571    0.0000 C   0  0  0  0  0  0  0  0  0  0  0  0
    1.7492   -1.1436    0.0000 C   0  0  0  0  0  0  0  0  0  0  0  0
    3.2072   -0.7912    0.0000 C   0  0  0  0  0  0  0  0  0  0  0  0
    3.6311    0.6477    0.0000 N   0  0  0  0  0  0  0  0  0  0  0  0
    5.0891    1.0000    0.0000 C   0  0  0  0  0  0  0  0  0  0  0  0
    6.1233   -0.0865    0.0000 C   0  0  0  0  0  0  0  0  0  0  0  0
    7.5622   -0.5104    0.0000 C   0  0  0  0  0  0  0  0  0  0  0  0
    6.4756   -1.5445    0.0000 C   0  0  0  0  0  0  0  0  0  0  0  0
    2.5969    1.7342    0.0000 C   0  0  0  0  0  0  0  0  0  0  0  0
    1.1389    1.3818    0.0000 C   0  0  0  0  0  0  0  0  0  0  0  0
   -3.6590   -1.1141    0.0000 C   0  0  0  0  0  0  0  0  0  0  0  0
   -5.1171   -1.4665    0.0000 C   0  0  0  0  0  0  0  0  0  0  0  0
  1  2  1  0
  2  3  2  0
  3  4  1  0
  4  5  2  0
  5  6  1  0
  6  7  1  0
  7  8  1  0
  8  9  1  0
  9 10  1  0
 10 11  1  0
 11 12  1  0
 12 13  1  0
 13 14  1  0
 14 15  1  0
 11 16  1  0
 16 17  1  0
  5 18  1  0
 18 19  2  0
 19  2  1  0
 17  8  1  0
 15 13  1  0
M  END
>  <ChemBL_ID>  (857) 
CHEMBL46880

>  <Compound_Key>  (857) 
14

>  <Ki>  (857) 
13.6

>  <database>  (857) 
CHEMBL

>  <Assay_ChEMBL_ID>  (857) 
CHEMBL811511

>  <Document_ChEMBL_ID>  (857) 
CHEMBL1130041

$$$$

     RDKit          2D

 27 29  0  0  0  0  0  0  0  0999 V2000
   -5.2048   -3.4098    0.0000 F   0  0  0  0  0  0  0  0  0  0  0  0
   -5.8391   -2.0505    0.0000 C   0  0  0  0  0  0  0  0  0  0  0  0
   -7.3334   -1.9202    0.0000 C   0  0  0  0  0  0  0  0  0  0  0  0
   -7.9677   -0.5609    0.0000 C   0  0  0  0  0  0  0  0  0  0  0  0
   -7.1077    0.6681    0.0000 C   0  0  0  0  0  0  0  0  0  0  0  0
   -5.6134    0.5378    0.0000 C   0  0  0  0  0  0  0  0  0  0  0  0
   -4.7534    1.7667    0.0000 C   0  0  0  0  0  0  0  0  0  0  0  0
   -3.2591    1.6364    0.0000 N   0  0  0  0  0  0  0  0  0  0  0  0
   -2.6247    0.2772    0.0000 C   0  0  0  0  0  0  0  0  0  0  0  0
   -1.1304    0.1469    0.0000 C   0  0  0  0  0  0  0  0  0  0  0  0
   -0.2704    1.3758    0.0000 C   0  0  0  0  0  0  0  0  0  0  0  0
    1.2239    1.2455    0.0000 C   0  0  0  0  0  0  0  0  0  0  0  0
    1.8583   -0.1137    0.0000 O   0  0  0  0  0  0  0  0  0  0  0  0
    3.3526   -0.2440    0.0000 C   0  0  0  0  0  0  0  0  0  0  0  0
    3.9869   -1.6033    0.0000 C   0  0  0  0  0  0  0  0  0  0  0  0
    3.1269   -2.8323    0.0000 F   0  0  0  0  0  0  0  0  0  0  0  0
    5.4812   -1.7336    0.0000 C   0  0  0  0  0  0  0  0  0  0  0  0
    6.1156   -3.0929    0.0000 F   0  0  0  0  0  0  0  0  0  0  0  0
    6.3412   -0.5046    0.0000 C   0  0  0  0  0  0  0  0  0  0  0  0
    7.8356   -0.6349    0.0000 F   0  0  0  0  0  0  0  0  0  0  0  0
    5.7069    0.8546    0.0000 C   0  0  0  0  0  0  0  0  0  0  0  0
    6.5669    2.0836    0.0000 F   0  0  0  0  0  0  0  0  0  0  0  0
    4.2126    0.9849    0.0000 C   0  0  0  0  0  0  0  0  0  0  0  0
    3.5783    2.3442    0.0000 F   0  0  0  0  0  0  0  0  0  0  0  0
   -0.9047    2.7351    0.0000 C   0  0  0  0  0  0  0  0  0  0  0  0
   -2.3990    2.8654    0.0000 C   0  0  0  0  0  0  0  0  0  0  0  0
   -4.9791   -0.8215    0.0000 C   0  0  0  0  0  0  0  0  0  0  0  0
  1  2  1  0
  2  3  2  0
  3  4  1  0
  4  5  2  0
  5  6  1  0
  6  7  1  0
  7  8  1  0
  8  9  1  0
  9 10  1  0
 10 11  1  0
 11 12  1  0
 12 13  1  0
 13 14  1  0
 14 15  2  0
 15 16  1  0
 15 17  1  0
 17 18  1  0
 17 19  2  0
 19 20  1  0
 19 21  1  0
 21 22  1  0
 21 23  2  0
 23 24  1  0
 11 25  1  0
 25 26  1  0
  6 27  2  0
 27  2  1  0
 26  8  1  0
 23 14  1  0
M  END
>  <ChemBL_ID>  (858) 
CHEMBL46396

>  <Compound_Key>  (858) 
18

>  <Ki>  (858) 
25.0

>  <database>  (858) 
CHEMBL

>  <Assay_ChEMBL_ID>  (858) 
CHEMBL811511

>  <Document_ChEMBL_ID>  (858) 
CHEMBL1130041

$$$$

     RDKit          2D

 18 19  0  0  0  0  0  0  0  0999 V2000
   -7.9371    0.2541    0.0000 F   0  0  0  0  0  0  0  0  0  0  0  0
   -6.4635    0.5343    0.0000 C   0  0  0  0  0  0  0  0  0  0  0  0
   -5.4841   -0.6018    0.0000 C   0  0  0  0  0  0  0  0  0  0  0  0
   -4.0105   -0.3217    0.0000 N   0  0  0  0  0  0  0  0  0  0  0  0
   -3.5163    1.0946    0.0000 C   0  0  0  0  0  0  0  0  0  0  0  0
   -2.0427    1.3747    0.0000 C   0  0  0  0  0  0  0  0  0  0  0  0
   -1.0633    0.2386    0.0000 C   0  0  0  0  0  0  0  0  0  0  0  0
    0.4103    0.5188    0.0000 C   0  0  0  0  0  0  0  0  0  0  0  0
    1.3898   -0.6173    0.0000 O   0  0  0  0  0  0  0  0  0  0  0  0
    2.8634   -0.3372    0.0000 C   0  0  0  0  0  0  0  0  0  0  0  0
    3.8428   -1.4733    0.0000 C   0  0  0  0  0  0  0  0  0  0  0  0
    5.3164   -1.1931    0.0000 C   0  0  0  0  0  0  0  0  0  0  0  0
    5.8106    0.2231    0.0000 C   0  0  0  0  0  0  0  0  0  0  0  0
    7.2842    0.5033    0.0000 I   0  0  0  0  0  0  0  0  0  0  0  0
    4.8311    1.3592    0.0000 C   0  0  0  0  0  0  0  0  0  0  0  0
    3.3575    1.0791    0.0000 C   0  0  0  0  0  0  0  0  0  0  0  0
   -1.5575   -1.1776    0.0000 C   0  0  0  0  0  0  0  0  0  0  0  0
   -3.0311   -1.4578    0.0000 C   0  0  0  0  0  0  0  0  0  0  0  0
  1  2  1  0
  2  3  1  0
  3  4  1  0
  4  5  1  0
  5  6  1  0
  6  7  1  0
  7  8  1  0
  8  9  1  0
  9 10  1  0
 10 11  2  0
 11 12  1  0
 12 13  2  0
 13 14  1  0
 13 15  1  0
 15 16  2  0
  7 17  1  0
 17 18  1  0
 18  4  1  0
 16 10  1  0
M  END
>  <ChemBL_ID>  (859) 
CHEMBL45168

>  <Compound_Key>  (859) 
8

>  <Ki>  (859) 
102.0

>  <database>  (859) 
CHEMBL

>  <Assay_ChEMBL_ID>  (859) 
CHEMBL811511

>  <Document_ChEMBL_ID>  (859) 
CHEMBL1130041

$$$$

     RDKit          2D

 20 21  0  0  0  0  0  0  0  0999 V2000
   -8.7576   -0.7727    0.0000 N   0  0  0  0  0  0  0  0  0  0  0  0
   -7.2872   -0.4761    0.0000 C   0  0  0  0  0  0  0  0  0  0  0  0
   -5.8169   -0.1795    0.0000 C   0  0  0  0  0  0  0  0  0  0  0  0
   -5.3385    1.2422    0.0000 C   0  0  0  0  0  0  0  0  0  0  0  0
   -3.8682    1.5388    0.0000 C   0  0  0  0  0  0  0  0  0  0  0  0
   -2.8761    0.4137    0.0000 C   0  0  0  0  0  0  0  0  0  0  0  0
   -1.4057    0.7103    0.0000 O   0  0  0  0  0  0  0  0  0  0  0  0
   -0.4137   -0.4147    0.0000 C   0  0  0  0  0  0  0  0  0  0  0  0
    1.0567   -0.1181    0.0000 C   0  0  0  0  0  0  0  0  0  0  0  0
    2.0488   -1.2432    0.0000 C   0  0  0  0  0  0  0  0  0  0  0  0
    3.5192   -0.9466    0.0000 C   0  0  0  0  0  0  0  0  0  0  0  0
    3.9975    0.4751    0.0000 N   0  0  0  0  0  0  0  0  0  0  0  0
    5.4679    0.7717    0.0000 C   0  0  0  0  0  0  0  0  0  0  0  0
    6.4599   -0.3534    0.0000 C   0  0  0  0  0  0  0  0  0  0  0  0
    7.9303   -0.0568    0.0000 C   0  0  0  0  0  0  0  0  0  0  0  0
    8.9224   -1.1819    0.0000 F   0  0  0  0  0  0  0  0  0  0  0  0
    3.0054    1.6002    0.0000 C   0  0  0  0  0  0  0  0  0  0  0  0
    1.5351    1.3035    0.0000 C   0  0  0  0  0  0  0  0  0  0  0  0
   -3.3544   -1.0079    0.0000 C   0  0  0  0  0  0  0  0  0  0  0  0
   -4.8248   -1.3045    0.0000 C   0  0  0  0  0  0  0  0  0  0  0  0
  1  2  3  0
  2  3  1  0
  3  4  2  0
  4  5  1  0
  5  6  2  0
  6  7  1  0
  7  8  1  0
  8  9  1  0
  9 10  1  0
 10 11  1  0
 11 12  1  0
 12 13  1  0
 13 14  1  0
 14 15  1  0
 15 16  1  0
 12 17  1  0
 17 18  1  0
  6 19  1  0
 19 20  2  0
 20  3  1  0
 18  9  1  0
M  END
>  <ChemBL_ID>  (860) 
CHEMBL417001

>  <Compound_Key>  (860) 
2

>  <Ki>  (860) 
144.0

>  <database>  (860) 
CHEMBL

>  <Assay_ChEMBL_ID>  (860) 
CHEMBL811511

>  <Document_ChEMBL_ID>  (860) 
CHEMBL1130041

$$$$

     RDKit          2D

 18 19  0  0  0  0  0  0  0  0999 V2000
   -7.9371    0.2541    0.0000 O   0  0  0  0  0  0  0  0  0  0  0  0
   -6.4635    0.5343    0.0000 C   0  0  0  0  0  0  0  0  0  0  0  0
   -5.4841   -0.6018    0.0000 C   0  0  0  0  0  0  0  0  0  0  0  0
   -4.0105   -0.3217    0.0000 N   0  0  0  0  0  0  0  0  0  0  0  0
   -3.5163    1.0946    0.0000 C   0  0  0  0  0  0  0  0  0  0  0  0
   -2.0427    1.3747    0.0000 C   0  0  0  0  0  0  0  0  0  0  0  0
   -1.0633    0.2386    0.0000 C   0  0  0  0  0  0  0  0  0  0  0  0
    0.4103    0.5188    0.0000 C   0  0  0  0  0  0  0  0  0  0  0  0
    1.3898   -0.6173    0.0000 O   0  0  0  0  0  0  0  0  0  0  0  0
    2.8634   -0.3372    0.0000 C   0  0  0  0  0  0  0  0  0  0  0  0
    3.8428   -1.4733    0.0000 C   0  0  0  0  0  0  0  0  0  0  0  0
    5.3164   -1.1931    0.0000 C   0  0  0  0  0  0  0  0  0  0  0  0
    5.8106    0.2231    0.0000 C   0  0  0  0  0  0  0  0  0  0  0  0
    7.2842    0.5033    0.0000 I   0  0  0  0  0  0  0  0  0  0  0  0
    4.8311    1.3592    0.0000 C   0  0  0  0  0  0  0  0  0  0  0  0
    3.3575    1.0791    0.0000 C   0  0  0  0  0  0  0  0  0  0  0  0
   -1.5575   -1.1776    0.0000 C   0  0  0  0  0  0  0  0  0  0  0  0
   -3.0311   -1.4578    0.0000 C   0  0  0  0  0  0  0  0  0  0  0  0
  1  2  1  0
  2  3  1  0
  3  4  1  0
  4  5  1  0
  5  6  1  0
  6  7  1  0
  7  8  1  0
  8  9  1  0
  9 10  1  0
 10 11  2  0
 11 12  1  0
 12 13  2  0
 13 14  1  0
 13 15  1  0
 15 16  2  0
  7 17  1  0
 17 18  1  0
 18  4  1  0
 16 10  1  0
M  END
>  <ChemBL_ID>  (861) 
CHEMBL46374

>  <Compound_Key>  (861) 
9

>  <Ki>  (861) 
139.0

>  <database>  (861) 
CHEMBL

>  <Assay_ChEMBL_ID>  (861) 
CHEMBL811511

>  <Document_ChEMBL_ID>  (861) 
CHEMBL1130041

$$$$

     RDKit          2D

 19 21  0  0  0  0  0  0  0  0999 V2000
   -7.6093   -0.7323    0.0000 I   0  0  0  0  0  0  0  0  0  0  0  0
   -6.1512   -0.3800    0.0000 C   0  0  0  0  0  0  0  0  0  0  0  0
   -5.7274    1.0589    0.0000 C   0  0  0  0  0  0  0  0  0  0  0  0
   -4.2693    1.4112    0.0000 C   0  0  0  0  0  0  0  0  0  0  0  0
   -3.2352    0.3247    0.0000 C   0  0  0  0  0  0  0  0  0  0  0  0
   -1.7772    0.6771    0.0000 O   0  0  0  0  0  0  0  0  0  0  0  0
   -0.7430   -0.4094    0.0000 C   0  0  0  0  0  0  0  0  0  0  0  0
    0.7150   -0.0571    0.0000 C   0  0  0  0  0  0  0  0  0  0  0  0
    1.7492   -1.1436    0.0000 C   0  0  0  0  0  0  0  0  0  0  0  0
    3.2072   -0.7912    0.0000 C   0  0  0  0  0  0  0  0  0  0  0  0
    3.6311    0.6477    0.0000 N   0  0  0  0  0  0  0  0  0  0  0  0
    5.0891    1.0000    0.0000 C   0  0  0  0  0  0  0  0  0  0  0  0
    6.1233   -0.0865    0.0000 C   0  0  0  0  0  0  0  0  0  0  0  0
    7.5622   -0.5104    0.0000 C   0  0  0  0  0  0  0  0  0  0  0  0
    6.4756   -1.5445    0.0000 C   0  0  0  0  0  0  0  0  0  0  0  0
    2.5969    1.7342    0.0000 C   0  0  0  0  0  0  0  0  0  0  0  0
    1.1389    1.3818    0.0000 C   0  0  0  0  0  0  0  0  0  0  0  0
   -3.6590   -1.1141    0.0000 C   0  0  0  0  0  0  0  0  0  0  0  0
   -5.1171   -1.4665    0.0000 C   0  0  0  0  0  0  0  0  0  0  0  0
  1  2  1  0
  2  3  2  0
  3  4  1  0
  4  5  2  0
  5  6  1  0
  6  7  1  0
  7  8  1  0
  8  9  1  0
  9 10  1  0
 10 11  1  0
 11 12  1  0
 12 13  1  0
 13 14  1  0
 14 15  1  0
 11 16  1  0
 16 17  1  0
  5 18  1  0
 18 19  2  0
 19  2  1  0
 17  8  1  0
 15 13  1  0
M  END
>  <ChemBL_ID>  (862) 
CHEMBL44739

>  <Compound_Key>  (862) 
10

>  <Ki>  (862) 
11.7

>  <database>  (862) 
CHEMBL

>  <Assay_ChEMBL_ID>  (862) 
CHEMBL811511

>  <Document_ChEMBL_ID>  (862) 
CHEMBL1130041

$$$$

     RDKit          2D

 24 26  0  0  0  0  0  0  0  0999 V2000
   -9.9498   -1.3970    0.0000 N   0  0  0  0  0  0  0  0  0  0  0  0
   -8.5200   -0.9433    0.0000 C   0  0  0  0  0  0  0  0  0  0  0  0
   -7.0903   -0.4896    0.0000 C   0  0  0  0  0  0  0  0  0  0  0  0
   -6.7683    0.9754    0.0000 C   0  0  0  0  0  0  0  0  0  0  0  0
   -5.3386    1.4291    0.0000 C   0  0  0  0  0  0  0  0  0  0  0  0
   -4.2308    0.4178    0.0000 C   0  0  0  0  0  0  0  0  0  0  0  0
   -2.8011    0.8715    0.0000 O   0  0  0  0  0  0  0  0  0  0  0  0
   -1.6933   -0.1398    0.0000 C   0  0  0  0  0  0  0  0  0  0  0  0
   -0.2635    0.3139    0.0000 C   0  0  0  0  0  0  0  0  0  0  0  0
    0.8443   -0.6975    0.0000 C   0  0  0  0  0  0  0  0  0  0  0  0
    2.2740   -0.2438    0.0000 C   0  0  0  0  0  0  0  0  0  0  0  0
    2.5959    1.2213    0.0000 N   0  0  0  0  0  0  0  0  0  0  0  0
    4.0257    1.6750    0.0000 C   0  0  0  0  0  0  0  0  0  0  0  0
    5.1335    0.6637    0.0000 C   0  0  0  0  0  0  0  0  0  0  0  0
    4.8115   -0.8014    0.0000 C   0  0  0  0  0  0  0  0  0  0  0  0
    5.9193   -1.8127    0.0000 C   0  0  0  0  0  0  0  0  0  0  0  0
    7.3490   -1.3590    0.0000 C   0  0  0  0  0  0  0  0  0  0  0  0
    8.4568   -2.3704    0.0000 F   0  0  0  0  0  0  0  0  0  0  0  0
    7.6710    0.1060    0.0000 C   0  0  0  0  0  0  0  0  0  0  0  0
    6.5632    1.1174    0.0000 C   0  0  0  0  0  0  0  0  0  0  0  0
    1.4882    2.2326    0.0000 C   0  0  0  0  0  0  0  0  0  0  0  0
    0.0584    1.7789    0.0000 C   0  0  0  0  0  0  0  0  0  0  0  0
   -4.5527   -1.0472    0.0000 C   0  0  0  0  0  0  0  0  0  0  0  0
   -5.9825   -1.5009    0.0000 C   0  0  0  0  0  0  0  0  0  0  0  0
  1  2  3  0
  2  3  1  0
  3  4  2  0
  4  5  1  0
  5  6  2  0
  6  7  1  0
  7  8  1  0
  8  9  1  0
  9 10  1  0
 10 11  1  0
 11 12  1  0
 12 13  1  0
 13 14  1  0
 14 15  2  0
 15 16  1  0
 16 17  2  0
 17 18  1  0
 17 19  1  0
 19 20  2  0
 12 21  1  0
 21 22  1  0
  6 23  1  0
 23 24  2  0
 24  3  1  0
 22  9  1  0
 20 14  1  0
M  END
>  <ChemBL_ID>  (863) 
CHEMBL46559

>  <Compound_Key>  (863) 
3

>  <Ki>  (863) 
5.2

>  <database>  (863) 
CHEMBL

>  <Assay_ChEMBL_ID>  (863) 
CHEMBL811511

>  <Document_ChEMBL_ID>  (863) 
CHEMBL1130041

$$$$

     RDKit          2D

 23 24  0  0  0  0  0  0  0  0999 V2000
   -9.3255    1.0035    0.0000 F   0  0  0  0  0  0  0  0  0  0  0  0
   -8.3056   -0.0965    0.0000 C   0  0  0  0  0  0  0  0  0  0  0  0
   -6.8431    0.2367    0.0000 C   0  0  0  0  0  0  0  0  0  0  0  0
   -5.8233   -0.8633    0.0000 C   0  0  0  0  0  0  0  0  0  0  0  0
   -4.3608   -0.5301    0.0000 N   0  0  0  0  0  0  0  0  0  0  0  0
   -3.9181    0.9031    0.0000 C   0  0  0  0  0  0  0  0  0  0  0  0
   -2.4555    1.2363    0.0000 C   0  0  0  0  0  0  0  0  0  0  0  0
   -1.4357    0.1363    0.0000 C   0  0  0  0  0  0  0  0  0  0  0  0
    0.0268    0.4695    0.0000 C   0  0  0  0  0  0  0  0  0  0  0  0
    1.0466   -0.6305    0.0000 O   0  0  0  0  0  0  0  0  0  0  0  0
    2.5092   -0.2973    0.0000 C   0  0  0  0  0  0  0  0  0  0  0  0
    3.5290   -1.3972    0.0000 C   0  0  0  0  0  0  0  0  0  0  0  0
    3.0863   -2.8304    0.0000 F   0  0  0  0  0  0  0  0  0  0  0  0
    4.9915   -1.0640    0.0000 C   0  0  0  0  0  0  0  0  0  0  0  0
    6.0113   -2.1640    0.0000 F   0  0  0  0  0  0  0  0  0  0  0  0
    5.4342    0.3691    0.0000 C   0  0  0  0  0  0  0  0  0  0  0  0
    6.8967    0.7023    0.0000 F   0  0  0  0  0  0  0  0  0  0  0  0
    4.4144    1.4691    0.0000 C   0  0  0  0  0  0  0  0  0  0  0  0
    4.8571    2.9023    0.0000 F   0  0  0  0  0  0  0  0  0  0  0  0
    2.9519    1.1359    0.0000 C   0  0  0  0  0  0  0  0  0  0  0  0
    1.9320    2.2359    0.0000 F   0  0  0  0  0  0  0  0  0  0  0  0
   -1.8784   -1.2969    0.0000 C   0  0  0  0  0  0  0  0  0  0  0  0
   -3.3409   -1.6301    0.0000 C   0  0  0  0  0  0  0  0  0  0  0  0
  1  2  1  0
  2  3  1  0
  3  4  1  0
  4  5  1  0
  5  6  1  0
  6  7  1  0
  7  8  1  0
  8  9  1  0
  9 10  1  0
 10 11  1  0
 11 12  2  0
 12 13  1  0
 12 14  1  0
 14 15  1  0
 14 16  2  0
 16 17  1  0
 16 18  1  0
 18 19  1  0
 18 20  2  0
 20 21  1  0
  8 22  1  0
 22 23  1  0
 23  5  1  0
 20 11  1  0
M  END
>  <ChemBL_ID>  (864) 
CHEMBL44304

>  <Compound_Key>  (864) 
16

>  <Ki>  (864) 
5.3

>  <database>  (864) 
CHEMBL

>  <Assay_ChEMBL_ID>  (864) 
CHEMBL811511

>  <Document_ChEMBL_ID>  (864) 
CHEMBL1130041

$$$$

     RDKit          2D

 24 26  0  0  0  0  0  0  0  0999 V2000
   -3.8065   -4.4422    0.0000 N   0  0  0  0  0  0  0  0  0  0  0  0
   -4.3698   -3.0520    0.0000 C   0  0  0  0  0  0  0  0  0  0  0  0
   -4.9331   -1.6619    0.0000 C   0  0  0  0  0  0  0  0  0  0  0  0
   -6.4188   -1.4546    0.0000 C   0  0  0  0  0  0  0  0  0  0  0  0
   -6.9821   -0.0644    0.0000 C   0  0  0  0  0  0  0  0  0  0  0  0
   -6.0598    1.1185    0.0000 C   0  0  0  0  0  0  0  0  0  0  0  0
   -4.5742    0.9113    0.0000 C   0  0  0  0  0  0  0  0  0  0  0  0
   -3.6519    2.0943    0.0000 C   0  0  0  0  0  0  0  0  0  0  0  0
   -2.1663    1.8870    0.0000 N   0  0  0  0  0  0  0  0  0  0  0  0
   -1.6030    0.4969    0.0000 C   0  0  0  0  0  0  0  0  0  0  0  0
   -0.1174    0.2896    0.0000 C   0  0  0  0  0  0  0  0  0  0  0  0
    0.8049    1.4726    0.0000 C   0  0  0  0  0  0  0  0  0  0  0  0
    2.2905    1.2654    0.0000 C   0  0  0  0  0  0  0  0  0  0  0  0
    2.8539   -0.1248    0.0000 O   0  0  0  0  0  0  0  0  0  0  0  0
    4.3395   -0.3321    0.0000 C   0  0  0  0  0  0  0  0  0  0  0  0
    4.9028   -1.7223    0.0000 C   0  0  0  0  0  0  0  0  0  0  0  0
    6.3884   -1.9295    0.0000 C   0  0  0  0  0  0  0  0  0  0  0  0
    7.3107   -0.7465    0.0000 C   0  0  0  0  0  0  0  0  0  0  0  0
    8.7963   -0.9538    0.0000 I   0  0  0  0  0  0  0  0  0  0  0  0
    6.7474    0.6437    0.0000 C   0  0  0  0  0  0  0  0  0  0  0  0
    5.2618    0.8509    0.0000 C   0  0  0  0  0  0  0  0  0  0  0  0
    0.2416    2.8628    0.0000 C   0  0  0  0  0  0  0  0  0  0  0  0
   -1.2440    3.0700    0.0000 C   0  0  0  0  0  0  0  0  0  0  0  0
   -4.0109   -0.4789    0.0000 C   0  0  0  0  0  0  0  0  0  0  0  0
  1  2  3  0
  2  3  1  0
  3  4  2  0
  4  5  1  0
  5  6  2  0
  6  7  1  0
  7  8  1  0
  8  9  1  0
  9 10  1  0
 10 11  1  0
 11 12  1  0
 12 13  1  0
 13 14  1  0
 14 15  1  0
 15 16  2  0
 16 17  1  0
 17 18  2  0
 18 19  1  0
 18 20  1  0
 20 21  2  0
 12 22  1  0
 22 23  1  0
  7 24  2  0
 24  3  1  0
 23  9  1  0
 21 15  1  0
M  END
>  <ChemBL_ID>  (865) 
CHEMBL417899

>  <Compound_Key>  (865) 
11

>  <Ki>  (865) 
69.5

>  <database>  (865) 
CHEMBL

>  <Assay_ChEMBL_ID>  (865) 
CHEMBL811511

>  <Document_ChEMBL_ID>  (865) 
CHEMBL1130041

$$$$

     RDKit          2D

 19 20  0  0  0  0  0  0  0  0999 V2000
   -8.3075   -0.6112    0.0000 N   0  0  0  0  0  0  0  0  0  0  0  0
   -6.8297   -0.3544    0.0000 C   0  0  0  0  0  0  0  0  0  0  0  0
   -5.3518   -0.0975    0.0000 C   0  0  0  0  0  0  0  0  0  0  0  0
   -4.8354    1.3108    0.0000 C   0  0  0  0  0  0  0  0  0  0  0  0
   -3.3575    1.5677    0.0000 C   0  0  0  0  0  0  0  0  0  0  0  0
   -2.3962    0.4163    0.0000 C   0  0  0  0  0  0  0  0  0  0  0  0
   -0.9183    0.6731    0.0000 O   0  0  0  0  0  0  0  0  0  0  0  0
    0.0431   -0.4783    0.0000 C   0  0  0  0  0  0  0  0  0  0  0  0
    1.5209   -0.2214    0.0000 C   0  0  0  0  0  0  0  0  0  0  0  0
    2.4823   -1.3728    0.0000 C   0  0  0  0  0  0  0  0  0  0  0  0
    3.9601   -1.1159    0.0000 C   0  0  0  0  0  0  0  0  0  0  0  0
    4.4766    0.2923    0.0000 N   0  0  0  0  0  0  0  0  0  0  0  0
    5.9544    0.5492    0.0000 C   0  0  0  0  0  0  0  0  0  0  0  0
    6.9158   -0.6022    0.0000 C   0  0  0  0  0  0  0  0  0  0  0  0
    8.3937   -0.3453    0.0000 F   0  0  0  0  0  0  0  0  0  0  0  0
    3.5152    1.4438    0.0000 C   0  0  0  0  0  0  0  0  0  0  0  0
    2.0374    1.1869    0.0000 C   0  0  0  0  0  0  0  0  0  0  0  0
   -2.9126   -0.9920    0.0000 C   0  0  0  0  0  0  0  0  0  0  0  0
   -4.3905   -1.2489    0.0000 C   0  0  0  0  0  0  0  0  0  0  0  0
  1  2  3  0
  2  3  1  0
  3  4  2  0
  4  5  1  0
  5  6  2  0
  6  7  1  0
  7  8  1  0
  8  9  1  0
  9 10  1  0
 10 11  1  0
 11 12  1  0
 12 13  1  0
 13 14  1  0
 14 15  1  0
 12 16  1  0
 16 17  1  0
  6 18  1  0
 18 19  2  0
 19  3  1  0
 17  9  1  0
M  END
>  <ChemBL_ID>  (866) 
CHEMBL46519

>  <Compound_Key>  (866) 
1

>  <Ki>  (866) 
361.0

>  <database>  (866) 
CHEMBL

>  <Assay_ChEMBL_ID>  (866) 
CHEMBL811511

>  <Document_ChEMBL_ID>  (866) 
CHEMBL1130041

$$$$

     RDKit          2D

 24 26  0  0  0  0  0  0  0  0999 V2000
   -9.9598   -1.0353    0.0000 N   0  0  0  0  0  0  0  0  0  0  0  0
   -8.5065   -0.6641    0.0000 C   0  0  0  0  0  0  0  0  0  0  0  0
   -7.0531   -0.2930    0.0000 C   0  0  0  0  0  0  0  0  0  0  0  0
   -6.6479    1.1513    0.0000 C   0  0  0  0  0  0  0  0  0  0  0  0
   -5.1945    1.5224    0.0000 C   0  0  0  0  0  0  0  0  0  0  0  0
   -4.1464    0.4494    0.0000 C   0  0  0  0  0  0  0  0  0  0  0  0
   -2.6930    0.8206    0.0000 O   0  0  0  0  0  0  0  0  0  0  0  0
   -1.6449   -0.2525    0.0000 C   0  0  0  0  0  0  0  0  0  0  0  0
   -0.1916    0.1187    0.0000 C   0  0  0  0  0  0  0  0  0  0  0  0
    0.8565   -0.9544    0.0000 C   0  0  0  0  0  0  0  0  0  0  0  0
    2.3099   -0.5832    0.0000 C   0  0  0  0  0  0  0  0  0  0  0  0
    2.7151    0.8610    0.0000 N   0  0  0  0  0  0  0  0  0  0  0  0
    4.1685    1.2322    0.0000 C   0  0  0  0  0  0  0  0  0  0  0  0
    5.2166    0.1591    0.0000 C   0  0  0  0  0  0  0  0  0  0  0  0
    4.8114   -1.2851    0.0000 C   0  0  0  0  0  0  0  0  0  0  0  0
    5.8595   -2.3582    0.0000 C   0  0  0  0  0  0  0  0  0  0  0  0
    7.3128   -1.9870    0.0000 C   0  0  0  0  0  0  0  0  0  0  0  0
    7.7181   -0.5428    0.0000 C   0  0  0  0  0  0  0  0  0  0  0  0
    6.6700    0.5303    0.0000 C   0  0  0  0  0  0  0  0  0  0  0  0
    7.0752    1.9745    0.0000 I   0  0  0  0  0  0  0  0  0  0  0  0
    1.6670    1.9341    0.0000 C   0  0  0  0  0  0  0  0  0  0  0  0
    0.2137    1.5629    0.0000 C   0  0  0  0  0  0  0  0  0  0  0  0
   -4.5516   -0.9948    0.0000 C   0  0  0  0  0  0  0  0  0  0  0  0
   -6.0050   -1.3660    0.0000 C   0  0  0  0  0  0  0  0  0  0  0  0
  1  2  3  0
  2  3  1  0
  3  4  2  0
  4  5  1  0
  5  6  2  0
  6  7  1  0
  7  8  1  0
  8  9  1  0
  9 10  1  0
 10 11  1  0
 11 12  1  0
 12 13  1  0
 13 14  1  0
 14 15  2  0
 15 16  1  0
 16 17  2  0
 17 18  1  0
 18 19  2  0
 19 20  1  0
 12 21  1  0
 21 22  1  0
  6 23  1  0
 23 24  2  0
 24  3  1  0
 22  9  1  0
 19 14  1  0
M  END
>  <ChemBL_ID>  (867) 
CHEMBL44988

>  <Compound_Key>  (867) 
6

>  <Ki>  (867) 
93.6

>  <database>  (867) 
CHEMBL

>  <Assay_ChEMBL_ID>  (867) 
CHEMBL811511

>  <Document_ChEMBL_ID>  (867) 
CHEMBL1130041

$$$$

     RDKit          2D

 19 21  0  0  0  0  0  0  0  0999 V2000
   -5.7342   -2.6132    0.0000 Br  0  0  0  0  0  0  0  0  0  0  0  0
   -5.2656   -1.1883    0.0000 C   0  0  0  0  0  0  0  0  0  0  0  0
   -6.2653   -0.0700    0.0000 C   0  0  0  0  0  0  0  0  0  0  0  0
   -5.7968    1.3549    0.0000 C   0  0  0  0  0  0  0  0  0  0  0  0
   -4.3284    1.6616    0.0000 C   0  0  0  0  0  0  0  0  0  0  0  0
   -3.3287    0.5433    0.0000 C   0  0  0  0  0  0  0  0  0  0  0  0
   -1.8604    0.8500    0.0000 O   0  0  0  0  0  0  0  0  0  0  0  0
   -0.8606   -0.2683    0.0000 C   0  0  0  0  0  0  0  0  0  0  0  0
    0.6077    0.0384    0.0000 C   0  0  0  0  0  0  0  0  0  0  0  0
    1.6074   -1.0799    0.0000 C   0  0  0  0  0  0  0  0  0  0  0  0
    3.0757   -0.7733    0.0000 C   0  0  0  0  0  0  0  0  0  0  0  0
    3.5443    0.6517    0.0000 N   0  0  0  0  0  0  0  0  0  0  0  0
    5.0126    0.9583    0.0000 C   0  0  0  0  0  0  0  0  0  0  0  0
    6.0124   -0.1599    0.0000 C   0  0  0  0  0  0  0  0  0  0  0  0
    7.4373   -0.6285    0.0000 C   0  0  0  0  0  0  0  0  0  0  0  0
    6.3190   -1.6282    0.0000 C   0  0  0  0  0  0  0  0  0  0  0  0
    2.5446    1.7699    0.0000 C   0  0  0  0  0  0  0  0  0  0  0  0
    1.0763    1.4633    0.0000 C   0  0  0  0  0  0  0  0  0  0  0  0
   -3.7973   -0.8816    0.0000 C   0  0  0  0  0  0  0  0  0  0  0  0
  1  2  1  0
  2  3  2  0
  3  4  1  0
  4  5  2  0
  5  6  1  0
  6  7  1  0
  7  8  1  0
  8  9  1  0
  9 10  1  0
 10 11  1  0
 11 12  1  0
 12 13  1  0
 13 14  1  0
 14 15  1  0
 15 16  1  0
 12 17  1  0
 17 18  1  0
  6 19  2  0
 19  2  1  0
 18  9  1  0
 16 14  1  0
M  END
>  <ChemBL_ID>  (868) 
CHEMBL289196

>  <Compound_Key>  (868) 
15

>  <Ki>  (868) 
9.9

>  <database>  (868) 
CHEMBL

>  <Assay_ChEMBL_ID>  (868) 
CHEMBL811511

>  <Document_ChEMBL_ID>  (868) 
CHEMBL1130041

$$$$

     RDKit          2D

 19 20  0  0  0  0  0  0  0  0999 V2000
   -4.1529   -3.5736    0.0000 C   0  0  0  0  0  0  0  0  0  0  0  0
   -3.7398   -2.1315    0.0000 C   0  0  0  0  0  0  0  0  0  0  0  0
   -4.7821   -1.0528    0.0000 C   0  0  0  0  0  0  0  0  0  0  0  0
   -4.3691    0.3892    0.0000 C   0  0  0  0  0  0  0  0  0  0  0  0
   -2.9137    0.7525    0.0000 N   0  0  0  0  0  0  0  0  0  0  0  0
   -2.5007    2.1945    0.0000 C   0  0  0  0  0  0  0  0  0  0  0  0
   -1.0454    2.5578    0.0000 C   0  0  0  0  0  0  0  0  0  0  0  0
   -0.6323    3.9998    0.0000 C   0  0  0  0  0  0  0  0  0  0  0  0
   -0.0031    1.4791    0.0000 C   0  0  0  0  0  0  0  0  0  0  0  0
    1.4523    1.8424    0.0000 O   0  0  0  0  0  0  0  0  0  0  0  0
    2.4946    0.7637    0.0000 C   0  0  0  0  0  0  0  0  0  0  0  0
    2.0815   -0.6783    0.0000 C   0  0  0  0  0  0  0  0  0  0  0  0
    3.1238   -1.7571    0.0000 C   0  0  0  0  0  0  0  0  0  0  0  0
    4.5792   -1.3938    0.0000 C   0  0  0  0  0  0  0  0  0  0  0  0
    5.6215   -2.4725    0.0000 Cl  0  0  0  0  0  0  0  0  0  0  0  0
    4.9922    0.0483    0.0000 C   0  0  0  0  0  0  0  0  0  0  0  0
    3.9499    1.1270    0.0000 C   0  0  0  0  0  0  0  0  0  0  0  0
   -1.8714   -0.3262    0.0000 C   0  0  0  0  0  0  0  0  0  0  0  0
   -2.2845   -1.7682    0.0000 C   0  0  0  0  0  0  0  0  0  0  0  0
  1  2  1  0
  2  3  1  0
  3  4  1  0
  4  5  1  0
  5  6  1  0
  6  7  1  0
  7  8  1  6
  7  9  1  0
  9 10  1  0
 10 11  1  0
 11 12  2  0
 12 13  1  0
 13 14  2  0
 14 15  1  0
 14 16  1  0
 16 17  2  0
  5 18  1  0
 18 19  1  0
 19  2  1  0
 17 11  1  0
M  END
>  <ChemBL_ID>  (869) 
CHEMBL539776

>  <Compound_Key>  (869) 
(+)-(R)-16

>  <Ki>  (869) 
40.8

>  <database>  (869) 
CHEMBL

>  <Assay_ChEMBL_ID>  (869) 
CHEMBL813144

>  <Document_ChEMBL_ID>  (869) 
CHEMBL1136792

$$$$

     RDKit          2D

 18 19  0  0  0  0  0  0  0  0999 V2000
   -5.5610   -2.3120    0.0000 C   0  0  0  0  0  0  0  0  0  0  0  0
   -4.5308   -1.2218    0.0000 C   0  0  0  0  0  0  0  0  0  0  0  0
   -4.9598    0.2155    0.0000 C   0  0  0  0  0  0  0  0  0  0  0  0
   -3.9295    1.3057    0.0000 C   0  0  0  0  0  0  0  0  0  0  0  0
   -2.4702    0.9586    0.0000 N   0  0  0  0  0  0  0  0  0  0  0  0
   -1.4400    2.0487    0.0000 C   0  0  0  0  0  0  0  0  0  0  0  0
    0.0193    1.7016    0.0000 C   0  0  0  0  0  0  0  0  0  0  0  0
    1.0496    2.7918    0.0000 C   0  0  0  0  0  0  0  0  0  0  0  0
    0.4483    0.2643    0.0000 O   0  0  0  0  0  0  0  0  0  0  0  0
    1.9076   -0.0829    0.0000 C   0  0  0  0  0  0  0  0  0  0  0  0
    2.3366   -1.5202    0.0000 C   0  0  0  0  0  0  0  0  0  0  0  0
    3.7959   -1.8674    0.0000 C   0  0  0  0  0  0  0  0  0  0  0  0
    4.8262   -0.7772    0.0000 C   0  0  0  0  0  0  0  0  0  0  0  0
    6.2854   -1.1243    0.0000 Cl  0  0  0  0  0  0  0  0  0  0  0  0
    4.3972    0.6602    0.0000 C   0  0  0  0  0  0  0  0  0  0  0  0
    2.9379    1.0073    0.0000 C   0  0  0  0  0  0  0  0  0  0  0  0
   -2.0412   -0.4788    0.0000 C   0  0  0  0  0  0  0  0  0  0  0  0
   -3.0715   -1.5690    0.0000 C   0  0  0  0  0  0  0  0  0  0  0  0
  1  2  1  0
  2  3  1  0
  3  4  1  0
  4  5  1  0
  5  6  1  0
  6  7  1  0
  7  8  1  6
  7  9  1  0
  9 10  1  0
 10 11  2  0
 11 12  1  0
 12 13  2  0
 13 14  1  0
 13 15  1  0
 15 16  2  0
  5 17  1  0
 17 18  1  0
 18  2  1  0
 16 10  1  0
M  END
>  <ChemBL_ID>  (870) 
CHEMBL545451

>  <Compound_Key>  (870) 
(-)-(R)-13

>  <Ki>  (870) 
332.0

>  <database>  (870) 
CHEMBL

>  <Assay_ChEMBL_ID>  (870) 
CHEMBL813144

>  <Document_ChEMBL_ID>  (870) 
CHEMBL1136792

$$$$

     RDKit          2D

 19 20  0  0  0  0  0  0  0  0999 V2000
   -7.5813    0.1989    0.0000 C   0  0  0  0  0  0  0  0  0  0  0  0
   -6.0813    0.2137    0.0000 C   0  0  0  0  0  0  0  0  0  0  0  0
   -5.3442    1.5200    0.0000 C   0  0  0  0  0  0  0  0  0  0  0  0
   -3.8442    1.5348    0.0000 C   0  0  0  0  0  0  0  0  0  0  0  0
   -3.0815    0.2432    0.0000 N   0  0  0  0  0  0  0  0  0  0  0  0
   -1.5816    0.2579    0.0000 C   0  0  0  0  0  0  0  0  0  0  0  0
   -0.8188   -1.0337    0.0000 C   0  0  0  0  0  0  0  0  0  0  0  0
    0.6811   -1.0189    0.0000 C   0  0  0  0  0  0  0  0  0  0  0  0
    1.4438   -2.3105    0.0000 C   0  0  0  0  0  0  0  0  0  0  0  0
    1.4183    0.2874    0.0000 O   0  0  0  0  0  0  0  0  0  0  0  0
    2.9182    0.3022    0.0000 C   0  0  0  0  0  0  0  0  0  0  0  0
    3.6810   -0.9894    0.0000 C   0  0  0  0  0  0  0  0  0  0  0  0
    5.1809   -0.9747    0.0000 C   0  0  0  0  0  0  0  0  0  0  0  0
    5.9181    0.3317    0.0000 C   0  0  0  0  0  0  0  0  0  0  0  0
    7.4180    0.3464    0.0000 Cl  0  0  0  0  0  0  0  0  0  0  0  0
    5.1553    1.6233    0.0000 C   0  0  0  0  0  0  0  0  0  0  0  0
    3.6554    1.6085    0.0000 C   0  0  0  0  0  0  0  0  0  0  0  0
   -3.8187   -1.0632    0.0000 C   0  0  0  0  0  0  0  0  0  0  0  0
   -5.3186   -1.0779    0.0000 C   0  0  0  0  0  0  0  0  0  0  0  0
  1  2  1  0
  2  3  1  0
  3  4  1  0
  4  5  1  0
  5  6  1  0
  6  7  1  0
  7  8  1  0
  8  9  1  6
  8 10  1  0
 10 11  1  0
 11 12  2  0
 12 13  1  0
 13 14  2  0
 14 15  1  0
 14 16  1  0
 16 17  2  0
  5 18  1  0
 18 19  1  0
 19  2  1  0
 17 11  1  0
M  END
>  <ChemBL_ID>  (871) 
CHEMBL555090

>  <Compound_Key>  (871) 
(+)-(S)-14

>  <Ki>  (871) 
13.9

>  <database>  (871) 
CHEMBL

>  <Assay_ChEMBL_ID>  (871) 
CHEMBL813144

>  <Document_ChEMBL_ID>  (871) 
CHEMBL1136792

$$$$

     RDKit          2D

 18 19  0  0  0  0  0  0  0  0999 V2000
   -7.5850   -0.6362    0.0000 C   0  0  0  0  0  0  0  0  0  0  0  0
   -6.1336   -0.2576    0.0000 C   0  0  0  0  0  0  0  0  0  0  0  0
   -5.7358    1.1887    0.0000 C   0  0  0  0  0  0  0  0  0  0  0  0
   -4.2844    1.5673    0.0000 C   0  0  0  0  0  0  0  0  0  0  0  0
   -3.2308    0.4997    0.0000 N   0  0  0  0  0  0  0  0  0  0  0  0
   -1.7793    0.8783    0.0000 C   0  0  0  0  0  0  0  0  0  0  0  0
   -0.7257   -0.1893    0.0000 C   0  0  0  0  0  0  0  0  0  0  0  0
    0.7257    0.1893    0.0000 C   0  0  0  0  0  0  0  0  0  0  0  0
    1.7793   -0.8783    0.0000 O   0  0  0  0  0  0  0  0  0  0  0  0
    3.2308   -0.4997    0.0000 C   0  0  0  0  0  0  0  0  0  0  0  0
    4.2844   -1.5673    0.0000 C   0  0  0  0  0  0  0  0  0  0  0  0
    5.7358   -1.1887    0.0000 C   0  0  0  0  0  0  0  0  0  0  0  0
    6.1336    0.2576    0.0000 C   0  0  0  0  0  0  0  0  0  0  0  0
    7.5850    0.6362    0.0000 Cl  0  0  0  0  0  0  0  0  0  0  0  0
    5.0800    1.3252    0.0000 C   0  0  0  0  0  0  0  0  0  0  0  0
    3.6286    0.9466    0.0000 C   0  0  0  0  0  0  0  0  0  0  0  0
   -3.6286   -0.9466    0.0000 C   0  0  0  0  0  0  0  0  0  0  0  0
   -5.0800   -1.3252    0.0000 C   0  0  0  0  0  0  0  0  0  0  0  0
  1  2  1  0
  2  3  1  0
  3  4  1  0
  4  5  1  0
  5  6  1  0
  6  7  1  0
  7  8  1  0
  8  9  1  0
  9 10  1  0
 10 11  2  0
 11 12  1  0
 12 13  2  0
 13 14  1  0
 13 15  1  0
 15 16  2  0
  5 17  1  0
 17 18  1  0
 18  2  1  0
 16 10  1  0
M  END
>  <ChemBL_ID>  (872) 
CHEMBL540289

>  <Compound_Key>  (872) 
15

>  <Ki>  (872) 
38.6

>  <database>  (872) 
CHEMBL

>  <Assay_ChEMBL_ID>  (872) 
CHEMBL813144

>  <Document_ChEMBL_ID>  (872) 
CHEMBL1136792

$$$$

     RDKit          2D

 19 20  0  0  0  0  0  0  0  0999 V2000
    7.5060   -0.8188    0.0000 C   0  0  0  0  0  0  0  0  0  0  0  0
    6.0577   -0.4285    0.0000 C   0  0  0  0  0  0  0  0  0  0  0  0
    4.9955   -1.4877    0.0000 C   0  0  0  0  0  0  0  0  0  0  0  0
    3.5472   -1.0974    0.0000 C   0  0  0  0  0  0  0  0  0  0  0  0
    3.1610    0.3520    0.0000 N   0  0  0  0  0  0  0  0  0  0  0  0
    1.7126    0.7423    0.0000 C   0  0  0  0  0  0  0  0  0  0  0  0
    1.3264    2.1917    0.0000 C   0  0  0  0  0  0  0  0  0  0  0  0
    0.6505   -0.3169    0.0000 C   0  0  0  0  0  0  0  0  0  0  0  0
   -0.7979    0.0734    0.0000 C   0  0  0  0  0  0  0  0  0  0  0  0
   -1.8600   -0.9858    0.0000 O   0  0  0  0  0  0  0  0  0  0  0  0
   -3.3084   -0.5955    0.0000 C   0  0  0  0  0  0  0  0  0  0  0  0
   -3.6945    0.8539    0.0000 C   0  0  0  0  0  0  0  0  0  0  0  0
   -5.1429    1.2442    0.0000 C   0  0  0  0  0  0  0  0  0  0  0  0
   -6.2050    0.1850    0.0000 C   0  0  0  0  0  0  0  0  0  0  0  0
   -7.6534    0.5752    0.0000 Cl  0  0  0  0  0  0  0  0  0  0  0  0
   -5.8188   -1.2644    0.0000 C   0  0  0  0  0  0  0  0  0  0  0  0
   -4.3705   -1.6547    0.0000 C   0  0  0  0  0  0  0  0  0  0  0  0
    4.2231    1.4112    0.0000 C   0  0  0  0  0  0  0  0  0  0  0  0
    5.6715    1.0209    0.0000 C   0  0  0  0  0  0  0  0  0  0  0  0
  1  2  1  0
  2  3  1  0
  3  4  1  0
  4  5  1  0
  5  6  1  0
  6  7  1  6
  6  8  1  0
  8  9  1  0
  9 10  1  0
 10 11  1  0
 11 12  2  0
 12 13  1  0
 13 14  2  0
 14 15  1  0
 14 16  1  0
 16 17  2  0
  5 18  1  0
 18 19  1  0
 19  2  1  0
 17 11  1  0
M  END
>  <ChemBL_ID>  (873) 
CHEMBL544524

>  <Compound_Key>  (873) 
(+)-(S)-18

>  <Ki>  (873) 
31.6

>  <database>  (873) 
CHEMBL

>  <Assay_ChEMBL_ID>  (873) 
CHEMBL813144

>  <Document_ChEMBL_ID>  (873) 
CHEMBL1136792

$$$$

     RDKit          2D

 19 20  0  0  0  0  0  0  0  0999 V2000
   -4.1529   -3.5736    0.0000 C   0  0  0  0  0  0  0  0  0  0  0  0
   -3.7398   -2.1315    0.0000 C   0  0  0  0  0  0  0  0  0  0  0  0
   -4.7821   -1.0528    0.0000 C   0  0  0  0  0  0  0  0  0  0  0  0
   -4.3691    0.3892    0.0000 C   0  0  0  0  0  0  0  0  0  0  0  0
   -2.9137    0.7525    0.0000 N   0  0  0  0  0  0  0  0  0  0  0  0
   -2.5007    2.1945    0.0000 C   0  0  0  0  0  0  0  0  0  0  0  0
   -1.0454    2.5578    0.0000 C   0  0  0  0  0  0  0  0  0  0  0  0
   -0.6323    3.9998    0.0000 C   0  0  0  0  0  0  0  0  0  0  0  0
   -0.0031    1.4791    0.0000 C   0  0  0  0  0  0  0  0  0  0  0  0
    1.4523    1.8424    0.0000 O   0  0  0  0  0  0  0  0  0  0  0  0
    2.4946    0.7637    0.0000 C   0  0  0  0  0  0  0  0  0  0  0  0
    2.0815   -0.6783    0.0000 C   0  0  0  0  0  0  0  0  0  0  0  0
    3.1238   -1.7571    0.0000 C   0  0  0  0  0  0  0  0  0  0  0  0
    4.5792   -1.3938    0.0000 C   0  0  0  0  0  0  0  0  0  0  0  0
    5.6215   -2.4725    0.0000 Cl  0  0  0  0  0  0  0  0  0  0  0  0
    4.9922    0.0483    0.0000 C   0  0  0  0  0  0  0  0  0  0  0  0
    3.9499    1.1270    0.0000 C   0  0  0  0  0  0  0  0  0  0  0  0
   -1.8714   -0.3262    0.0000 C   0  0  0  0  0  0  0  0  0  0  0  0
   -2.2845   -1.7682    0.0000 C   0  0  0  0  0  0  0  0  0  0  0  0
  1  2  1  0
  2  3  1  0
  3  4  1  0
  4  5  1  0
  5  6  1  0
  6  7  1  0
  7  8  1  1
  7  9  1  0
  9 10  1  0
 10 11  1  0
 11 12  2  0
 12 13  1  0
 13 14  2  0
 14 15  1  0
 14 16  1  0
 16 17  2  0
  5 18  1  0
 18 19  1  0
 19  2  1  0
 17 11  1  0
M  END
>  <ChemBL_ID>  (874) 
CHEMBL543105

>  <Compound_Key>  (874) 
(-)-(S)-16

>  <Ki>  (874) 
62.0

>  <database>  (874) 
CHEMBL

>  <Assay_ChEMBL_ID>  (874) 
CHEMBL813144

>  <Document_ChEMBL_ID>  (874) 
CHEMBL1136792

$$$$

     RDKit          2D

 20 22  0  0  0  0  0  0  0  0999 V2000
    1.2498   -1.1818    0.0000 C   0  0  0  0  0  0  0  0  0  0  0  0
   -0.0601   -0.4509    0.0000 C   0  0  0  0  0  0  0  0  0  0  0  0
   -1.3480   -1.2199    0.0000 C   0  0  0  0  0  0  0  0  0  0  0  0
   -2.6579   -0.4890    0.0000 C   0  0  0  0  0  0  0  0  0  0  0  0
   -2.6799    1.0108    0.0000 C   0  0  0  0  0  0  0  0  0  0  0  0
   -3.9898    1.7417    0.0000 C   0  0  0  0  0  0  0  0  0  0  0  0
   -5.2777    0.9728    0.0000 C   0  0  0  0  0  0  0  0  0  0  0  0
   -5.2557   -0.5271    0.0000 C   0  0  0  0  0  0  0  0  0  0  0  0
   -3.9458   -1.2579    0.0000 C   0  0  0  0  0  0  0  0  0  0  0  0
   -6.6753   -1.0114    0.0000 O   0  0  0  0  0  0  0  0  0  0  0  0
   -7.5747    0.1890    0.0000 C   0  0  0  0  0  0  0  0  0  0  0  0
   -6.7109    1.4154    0.0000 O   0  0  0  0  0  0  0  0  0  0  0  0
    2.5377   -0.4129    0.0000 C   0  0  0  0  0  0  0  0  0  0  0  0
    3.8476   -1.1437    0.0000 C   0  0  0  0  0  0  0  0  0  0  0  0
    5.1355   -0.3748    0.0000 N   0  0  0  0  0  0  0  0  0  0  0  0
    6.4454   -1.1057    0.0000 C   0  0  0  0  0  0  0  0  0  0  0  0
    7.7333   -0.3367    0.0000 C   0  0  0  0  0  0  0  0  0  0  0  0
    7.7113    1.1631    0.0000 C   0  0  0  0  0  0  0  0  0  0  0  0
    6.4014    1.8940    0.0000 C   0  0  0  0  0  0  0  0  0  0  0  0
    5.1135    1.1250    0.0000 C   0  0  0  0  0  0  0  0  0  0  0  0
  1  2  1  0
  2  3  2  0
  3  4  1  0
  4  5  2  0
  5  6  1  0
  6  7  2  0
  7  8  1  0
  8  9  2  0
  8 10  1  0
 10 11  1  0
 11 12  1  0
  1 13  2  0
 13 14  1  0
 14 15  1  0
 15 16  1  0
 16 17  1  0
 17 18  1  0
 18 19  1  0
 19 20  1  0
  9  4  1  0
 20 15  1  0
 12  7  1  0
M  END
>  <ChemBL_ID>  (875) 
CHEMBL418484

>  <Compound_Key>  (875) 
19

>  <Ki>  (875) 
554.0

>  <database>  (875) 
CHEMBL

>  <Assay_ChEMBL_ID>  (875) 
CHEMBL813144

>  <Document_ChEMBL_ID>  (875) 
CHEMBL1136792

$$$$

     RDKit          2D

 18 19  0  0  0  0  0  0  0  0999 V2000
    6.3980   -1.7999    0.0000 C   0  0  0  0  0  0  0  0  0  0  0  0
    5.1098   -1.0314    0.0000 C   0  0  0  0  0  0  0  0  0  0  0  0
    3.8002   -1.7628    0.0000 C   0  0  0  0  0  0  0  0  0  0  0  0
    2.5120   -0.9943    0.0000 C   0  0  0  0  0  0  0  0  0  0  0  0
    2.5334    0.5055    0.0000 N   0  0  0  0  0  0  0  0  0  0  0  0
    1.2452    1.2740    0.0000 C   0  0  0  0  0  0  0  0  0  0  0  0
    1.2666    2.7739    0.0000 C   0  0  0  0  0  0  0  0  0  0  0  0
   -0.0644    0.5426    0.0000 C   0  0  0  0  0  0  0  0  0  0  0  0
   -1.3526    1.3111    0.0000 O   0  0  0  0  0  0  0  0  0  0  0  0
   -2.6622    0.5798    0.0000 C   0  0  0  0  0  0  0  0  0  0  0  0
   -3.9504    1.3482    0.0000 C   0  0  0  0  0  0  0  0  0  0  0  0
   -5.2600    0.6169    0.0000 C   0  0  0  0  0  0  0  0  0  0  0  0
   -5.2815   -0.8830    0.0000 C   0  0  0  0  0  0  0  0  0  0  0  0
   -6.5911   -1.6144    0.0000 Cl  0  0  0  0  0  0  0  0  0  0  0  0
   -3.9933   -1.6515    0.0000 C   0  0  0  0  0  0  0  0  0  0  0  0
   -2.6837   -0.9201    0.0000 C   0  0  0  0  0  0  0  0  0  0  0  0
    3.8430    1.2369    0.0000 C   0  0  0  0  0  0  0  0  0  0  0  0
    5.1312    0.4684    0.0000 C   0  0  0  0  0  0  0  0  0  0  0  0
  1  2  1  0
  2  3  1  0
  3  4  1  0
  4  5  1  0
  5  6  1  0
  6  7  1  1
  6  8  1  0
  8  9  1  0
  9 10  1  0
 10 11  2  0
 11 12  1  0
 12 13  2  0
 13 14  1  0
 13 15  1  0
 15 16  2  0
  5 17  1  0
 17 18  1  0
 18  2  1  0
 16 10  1  0
M  END
>  <ChemBL_ID>  (876) 
CHEMBL542873

>  <Compound_Key>  (876) 
(+)-(R)-17

>  <Ki>  (876) 
52.3

>  <database>  (876) 
CHEMBL

>  <Assay_ChEMBL_ID>  (876) 
CHEMBL813144

>  <Document_ChEMBL_ID>  (876) 
CHEMBL1136792

$$$$

     RDKit          2D

 19 20  0  0  0  0  0  0  0  0999 V2000
   -7.5813    0.1989    0.0000 C   0  0  0  0  0  0  0  0  0  0  0  0
   -6.0813    0.2137    0.0000 C   0  0  0  0  0  0  0  0  0  0  0  0
   -5.3442    1.5200    0.0000 C   0  0  0  0  0  0  0  0  0  0  0  0
   -3.8442    1.5348    0.0000 C   0  0  0  0  0  0  0  0  0  0  0  0
   -3.0815    0.2432    0.0000 N   0  0  0  0  0  0  0  0  0  0  0  0
   -1.5816    0.2579    0.0000 C   0  0  0  0  0  0  0  0  0  0  0  0
   -0.8188   -1.0337    0.0000 C   0  0  0  0  0  0  0  0  0  0  0  0
    0.6811   -1.0189    0.0000 C   0  0  0  0  0  0  0  0  0  0  0  0
    1.4438   -2.3105    0.0000 C   0  0  0  0  0  0  0  0  0  0  0  0
    1.4183    0.2874    0.0000 O   0  0  0  0  0  0  0  0  0  0  0  0
    2.9182    0.3022    0.0000 C   0  0  0  0  0  0  0  0  0  0  0  0
    3.6810   -0.9894    0.0000 C   0  0  0  0  0  0  0  0  0  0  0  0
    5.1809   -0.9747    0.0000 C   0  0  0  0  0  0  0  0  0  0  0  0
    5.9181    0.3317    0.0000 C   0  0  0  0  0  0  0  0  0  0  0  0
    7.4180    0.3464    0.0000 Cl  0  0  0  0  0  0  0  0  0  0  0  0
    5.1553    1.6233    0.0000 C   0  0  0  0  0  0  0  0  0  0  0  0
    3.6554    1.6085    0.0000 C   0  0  0  0  0  0  0  0  0  0  0  0
   -3.8187   -1.0632    0.0000 C   0  0  0  0  0  0  0  0  0  0  0  0
   -5.3186   -1.0779    0.0000 C   0  0  0  0  0  0  0  0  0  0  0  0
  1  2  1  0
  2  3  1  0
  3  4  1  0
  4  5  1  0
  5  6  1  0
  6  7  1  0
  7  8  1  0
  8  9  1  1
  8 10  1  0
 10 11  1  0
 11 12  2  0
 12 13  1  0
 13 14  2  0
 14 15  1  0
 14 16  1  0
 16 17  2  0
  5 18  1  0
 18 19  1  0
 19  2  1  0
 17 11  1  0
M  END
>  <ChemBL_ID>  (877) 
CHEMBL543581

>  <Compound_Key>  (877) 
(-)-(R)-14

>  <Ki>  (877) 
65.9

>  <database>  (877) 
CHEMBL

>  <Assay_ChEMBL_ID>  (877) 
CHEMBL813144

>  <Document_ChEMBL_ID>  (877) 
CHEMBL1136792

$$$$

     RDKit          2D

 18 19  0  0  0  0  0  0  0  0999 V2000
    6.3980   -1.7999    0.0000 C   0  0  0  0  0  0  0  0  0  0  0  0
    5.1098   -1.0314    0.0000 C   0  0  0  0  0  0  0  0  0  0  0  0
    3.8002   -1.7628    0.0000 C   0  0  0  0  0  0  0  0  0  0  0  0
    2.5120   -0.9943    0.0000 C   0  0  0  0  0  0  0  0  0  0  0  0
    2.5334    0.5055    0.0000 N   0  0  0  0  0  0  0  0  0  0  0  0
    1.2452    1.2740    0.0000 C   0  0  0  0  0  0  0  0  0  0  0  0
    1.2666    2.7739    0.0000 C   0  0  0  0  0  0  0  0  0  0  0  0
   -0.0644    0.5426    0.0000 C   0  0  0  0  0  0  0  0  0  0  0  0
   -1.3526    1.3111    0.0000 O   0  0  0  0  0  0  0  0  0  0  0  0
   -2.6622    0.5798    0.0000 C   0  0  0  0  0  0  0  0  0  0  0  0
   -3.9504    1.3482    0.0000 C   0  0  0  0  0  0  0  0  0  0  0  0
   -5.2600    0.6169    0.0000 C   0  0  0  0  0  0  0  0  0  0  0  0
   -5.2815   -0.8830    0.0000 C   0  0  0  0  0  0  0  0  0  0  0  0
   -6.5911   -1.6144    0.0000 Cl  0  0  0  0  0  0  0  0  0  0  0  0
   -3.9933   -1.6515    0.0000 C   0  0  0  0  0  0  0  0  0  0  0  0
   -2.6837   -0.9201    0.0000 C   0  0  0  0  0  0  0  0  0  0  0  0
    3.8430    1.2369    0.0000 C   0  0  0  0  0  0  0  0  0  0  0  0
    5.1312    0.4684    0.0000 C   0  0  0  0  0  0  0  0  0  0  0  0
  1  2  1  0
  2  3  1  0
  3  4  1  0
  4  5  1  0
  5  6  1  0
  6  7  1  6
  6  8  1  0
  8  9  1  0
  9 10  1  0
 10 11  2  0
 11 12  1  0
 12 13  2  0
 13 14  1  0
 13 15  1  0
 15 16  2  0
  5 17  1  0
 17 18  1  0
 18  2  1  0
 16 10  1  0
M  END
>  <ChemBL_ID>  (878) 
CHEMBL555790

>  <Compound_Key>  (878) 
(-)-(S)-17

>  <Ki>  (878) 
186.0

>  <database>  (878) 
CHEMBL

>  <Assay_ChEMBL_ID>  (878) 
CHEMBL813144

>  <Document_ChEMBL_ID>  (878) 
CHEMBL1136792

$$$$

     RDKit          2D

 18 19  0  0  0  0  0  0  0  0999 V2000
   -5.5610   -2.3120    0.0000 C   0  0  0  0  0  0  0  0  0  0  0  0
   -4.5308   -1.2218    0.0000 C   0  0  0  0  0  0  0  0  0  0  0  0
   -4.9598    0.2155    0.0000 C   0  0  0  0  0  0  0  0  0  0  0  0
   -3.9295    1.3057    0.0000 C   0  0  0  0  0  0  0  0  0  0  0  0
   -2.4702    0.9586    0.0000 N   0  0  0  0  0  0  0  0  0  0  0  0
   -1.4400    2.0487    0.0000 C   0  0  0  0  0  0  0  0  0  0  0  0
    0.0193    1.7016    0.0000 C   0  0  0  0  0  0  0  0  0  0  0  0
    1.0496    2.7918    0.0000 C   0  0  0  0  0  0  0  0  0  0  0  0
    0.4483    0.2643    0.0000 O   0  0  0  0  0  0  0  0  0  0  0  0
    1.9076   -0.0829    0.0000 C   0  0  0  0  0  0  0  0  0  0  0  0
    2.3366   -1.5202    0.0000 C   0  0  0  0  0  0  0  0  0  0  0  0
    3.7959   -1.8674    0.0000 C   0  0  0  0  0  0  0  0  0  0  0  0
    4.8262   -0.7772    0.0000 C   0  0  0  0  0  0  0  0  0  0  0  0
    6.2854   -1.1243    0.0000 Cl  0  0  0  0  0  0  0  0  0  0  0  0
    4.3972    0.6602    0.0000 C   0  0  0  0  0  0  0  0  0  0  0  0
    2.9379    1.0073    0.0000 C   0  0  0  0  0  0  0  0  0  0  0  0
   -2.0412   -0.4788    0.0000 C   0  0  0  0  0  0  0  0  0  0  0  0
   -3.0715   -1.5690    0.0000 C   0  0  0  0  0  0  0  0  0  0  0  0
  1  2  1  0
  2  3  1  0
  3  4  1  0
  4  5  1  0
  5  6  1  0
  6  7  1  0
  7  8  1  1
  7  9  1  0
  9 10  1  0
 10 11  2  0
 11 12  1  0
 12 13  2  0
 13 14  1  0
 13 15  1  0
 15 16  2  0
  5 17  1  0
 17 18  1  0
 18  2  1  0
 16 10  1  0
M  END
>  <ChemBL_ID>  (879) 
CHEMBL542392

>  <Compound_Key>  (879) 
(+)-(S)-13

>  <Ki>  (879) 
318.0

>  <database>  (879) 
CHEMBL

>  <Assay_ChEMBL_ID>  (879) 
CHEMBL813144

>  <Document_ChEMBL_ID>  (879) 
CHEMBL1136792

$$$$

     RDKit          2D

 17 18  0  0  0  0  0  0  0  0999 V2000
   -6.4952   -1.5441    0.0000 C   0  0  0  0  0  0  0  0  0  0  0  0
   -5.1962   -0.7941    0.0000 C   0  0  0  0  0  0  0  0  0  0  0  0
   -5.1962    0.7059    0.0000 C   0  0  0  0  0  0  0  0  0  0  0  0
   -3.8971    1.4559    0.0000 C   0  0  0  0  0  0  0  0  0  0  0  0
   -2.5981    0.7059    0.0000 N   0  0  0  0  0  0  0  0  0  0  0  0
   -1.2990    1.4559    0.0000 C   0  0  0  0  0  0  0  0  0  0  0  0
   -0.0000    0.7059    0.0000 C   0  0  0  0  0  0  0  0  0  0  0  0
    1.2990    1.4559    0.0000 O   0  0  0  0  0  0  0  0  0  0  0  0
    2.5981    0.7059    0.0000 C   0  0  0  0  0  0  0  0  0  0  0  0
    2.5981   -0.7941    0.0000 C   0  0  0  0  0  0  0  0  0  0  0  0
    3.8971   -1.5441    0.0000 C   0  0  0  0  0  0  0  0  0  0  0  0
    5.1962   -0.7941    0.0000 C   0  0  0  0  0  0  0  0  0  0  0  0
    6.4952   -1.5441    0.0000 Cl  0  0  0  0  0  0  0  0  0  0  0  0
    5.1962    0.7059    0.0000 C   0  0  0  0  0  0  0  0  0  0  0  0
    3.8971    1.4559    0.0000 C   0  0  0  0  0  0  0  0  0  0  0  0
   -2.5981   -0.7941    0.0000 C   0  0  0  0  0  0  0  0  0  0  0  0
   -3.8971   -1.5441    0.0000 C   0  0  0  0  0  0  0  0  0  0  0  0
  1  2  1  0
  2  3  1  0
  3  4  1  0
  4  5  1  0
  5  6  1  0
  6  7  1  0
  7  8  1  0
  8  9  1  0
  9 10  2  0
 10 11  1  0
 11 12  2  0
 12 13  1  0
 12 14  1  0
 14 15  2  0
  5 16  1  0
 16 17  1  0
 17  2  1  0
 15  9  1  0
M  END
>  <ChemBL_ID>  (880) 
CHEMBL543821

>  <Compound_Key>  (880) 
12

>  <Ki>  (880) 
239.0

>  <database>  (880) 
CHEMBL

>  <Assay_ChEMBL_ID>  (880) 
CHEMBL813144

>  <Document_ChEMBL_ID>  (880) 
CHEMBL1136792

$$$$

     RDKit          2D

 19 20  0  0  0  0  0  0  0  0999 V2000
    7.5060   -0.8188    0.0000 C   0  0  0  0  0  0  0  0  0  0  0  0
    6.0577   -0.4285    0.0000 C   0  0  0  0  0  0  0  0  0  0  0  0
    4.9955   -1.4877    0.0000 C   0  0  0  0  0  0  0  0  0  0  0  0
    3.5472   -1.0974    0.0000 C   0  0  0  0  0  0  0  0  0  0  0  0
    3.1610    0.3520    0.0000 N   0  0  0  0  0  0  0  0  0  0  0  0
    1.7126    0.7423    0.0000 C   0  0  0  0  0  0  0  0  0  0  0  0
    1.3264    2.1917    0.0000 C   0  0  0  0  0  0  0  0  0  0  0  0
    0.6505   -0.3169    0.0000 C   0  0  0  0  0  0  0  0  0  0  0  0
   -0.7979    0.0734    0.0000 C   0  0  0  0  0  0  0  0  0  0  0  0
   -1.8600   -0.9858    0.0000 O   0  0  0  0  0  0  0  0  0  0  0  0
   -3.3084   -0.5955    0.0000 C   0  0  0  0  0  0  0  0  0  0  0  0
   -3.6945    0.8539    0.0000 C   0  0  0  0  0  0  0  0  0  0  0  0
   -5.1429    1.2442    0.0000 C   0  0  0  0  0  0  0  0  0  0  0  0
   -6.2050    0.1850    0.0000 C   0  0  0  0  0  0  0  0  0  0  0  0
   -7.6534    0.5752    0.0000 Cl  0  0  0  0  0  0  0  0  0  0  0  0
   -5.8188   -1.2644    0.0000 C   0  0  0  0  0  0  0  0  0  0  0  0
   -4.3705   -1.6547    0.0000 C   0  0  0  0  0  0  0  0  0  0  0  0
    4.2231    1.4112    0.0000 C   0  0  0  0  0  0  0  0  0  0  0  0
    5.6715    1.0209    0.0000 C   0  0  0  0  0  0  0  0  0  0  0  0
  1  2  1  0
  2  3  1  0
  3  4  1  0
  4  5  1  0
  5  6  1  0
  6  7  1  1
  6  8  1  0
  8  9  1  0
  9 10  1  0
 10 11  1  0
 11 12  2  0
 12 13  1  0
 13 14  2  0
 14 15  1  0
 14 16  1  0
 16 17  2  0
  5 18  1  0
 18 19  1  0
 19  2  1  0
 17 11  1  0
M  END
>  <ChemBL_ID>  (881) 
CHEMBL545691

>  <Compound_Key>  (881) 
(-)-(R)-18

>  <Ki>  (881) 
15.1

>  <database>  (881) 
CHEMBL

>  <Assay_ChEMBL_ID>  (881) 
CHEMBL813144

>  <Document_ChEMBL_ID>  (881) 
CHEMBL1136792

$$$$

     RDKit          2D

 21 23  0  0  0  0  0  0  0  0999 V2000
   -5.9797   -2.9827    0.0000 Cl  0  0  0  0  0  0  0  0  0  0  0  0
   -5.1255   -1.7497    0.0000 C   0  0  0  0  0  0  0  0  0  0  0  0
   -5.7661   -0.3934    0.0000 C   0  0  0  0  0  0  0  0  0  0  0  0
   -4.9119    0.8396    0.0000 C   0  0  0  0  0  0  0  0  0  0  0  0
   -3.4170    0.7163    0.0000 C   0  0  0  0  0  0  0  0  0  0  0  0
   -2.5627    1.9493    0.0000 C   0  0  0  0  0  0  0  0  0  0  0  0
   -1.0678    1.8260    0.0000 N   0  0  0  0  0  0  0  0  0  0  0  0
   -0.4271    0.4697    0.0000 C   0  0  0  0  0  0  0  0  0  0  0  0
    1.0678    0.3464    0.0000 C   0  0  0  0  0  0  0  0  0  0  0  0
    1.9220    1.5794    0.0000 N   0  0  0  0  0  0  0  0  0  0  0  0
    3.4170    1.4561    0.0000 C   0  0  0  0  0  0  0  0  0  0  0  0
    4.0577    0.0998    0.0000 C   0  0  0  0  0  0  0  0  0  0  0  0
    3.2034   -1.1332    0.0000 C   0  0  0  0  0  0  0  0  0  0  0  0
    3.8441   -2.4895    0.0000 C   0  0  0  0  0  0  0  0  0  0  0  0
    5.3390   -2.6128    0.0000 C   0  0  0  0  0  0  0  0  0  0  0  0
    6.1933   -1.3798    0.0000 C   0  0  0  0  0  0  0  0  0  0  0  0
    5.5526   -0.0235    0.0000 C   0  0  0  0  0  0  0  0  0  0  0  0
    1.2814    2.9357    0.0000 C   0  0  0  0  0  0  0  0  0  0  0  0
   -0.2136    3.0590    0.0000 C   0  0  0  0  0  0  0  0  0  0  0  0
   -2.7763   -0.6400    0.0000 C   0  0  0  0  0  0  0  0  0  0  0  0
   -3.6305   -1.8730    0.0000 C   0  0  0  0  0  0  0  0  0  0  0  0
  1  2  1  0
  2  3  2  0
  3  4  1  0
  4  5  2  0
  5  6  1  0
  6  7  1  0
  7  8  1  0
  8  9  1  0
  9 10  1  0
 10 11  1  0
 11 12  1  0
 12 13  2  0
 13 14  1  0
 14 15  2  0
 15 16  1  0
 16 17  2  0
 10 18  1  0
 18 19  1  0
  5 20  1  0
 20 21  2  0
 21  2  1  0
 19  7  1  0
 17 12  1  0
M  END
>  <ChemBL_ID>  (882) 
CHEMBL162422

>  <Compound_Key>  (882) 
8

>  <Ki>  (882) 
187.0

>  <database>  (882) 
CHEMBL

>  <Assay_ChEMBL_ID>  (882) 
CHEMBL813148

>  <Document_ChEMBL_ID>  (882) 
CHEMBL1136602

$$$$

     RDKit          2D

 22 24  0  0  0  0  0  0  0  0999 V2000
   -5.9433   -2.6210    0.0000 Cl  0  0  0  0  0  0  0  0  0  0  0  0
   -5.0447   -1.4199    0.0000 C   0  0  0  0  0  0  0  0  0  0  0  0
   -5.6355   -0.0412    0.0000 C   0  0  0  0  0  0  0  0  0  0  0  0
   -4.7369    1.1599    0.0000 C   0  0  0  0  0  0  0  0  0  0  0  0
   -3.2474    0.9821    0.0000 C   0  0  0  0  0  0  0  0  0  0  0  0
   -2.3488    2.1832    0.0000 C   0  0  0  0  0  0  0  0  0  0  0  0
   -0.8594    2.0055    0.0000 N   0  0  0  0  0  0  0  0  0  0  0  0
   -0.2685    0.6267    0.0000 C   0  0  0  0  0  0  0  0  0  0  0  0
    1.2209    0.4490    0.0000 C   0  0  0  0  0  0  0  0  0  0  0  0
    2.1195    1.6500    0.0000 N   0  0  0  0  0  0  0  0  0  0  0  0
    3.6089    1.4723    0.0000 C   0  0  0  0  0  0  0  0  0  0  0  0
    4.1998    0.0936    0.0000 C   0  0  0  0  0  0  0  0  0  0  0  0
    3.3011   -1.1075    0.0000 C   0  0  0  0  0  0  0  0  0  0  0  0
    3.8919   -2.4862    0.0000 C   0  0  0  0  0  0  0  0  0  0  0  0
    5.3814   -2.6639    0.0000 C   0  0  0  0  0  0  0  0  0  0  0  0
    6.2800   -1.4629    0.0000 C   0  0  0  0  0  0  0  0  0  0  0  0
    5.6892   -0.0842    0.0000 C   0  0  0  0  0  0  0  0  0  0  0  0
    1.5287    3.0288    0.0000 C   0  0  0  0  0  0  0  0  0  0  0  0
    0.0393    3.2065    0.0000 C   0  0  0  0  0  0  0  0  0  0  0  0
   -2.6566   -0.3966    0.0000 C   0  0  0  0  0  0  0  0  0  0  0  0
   -3.5552   -1.5976    0.0000 C   0  0  0  0  0  0  0  0  0  0  0  0
   -2.9644   -2.9764    0.0000 Cl  0  0  0  0  0  0  0  0  0  0  0  0
  1  2  1  0
  2  3  2  0
  3  4  1  0
  4  5  2  0
  5  6  1  0
  6  7  1  0
  7  8  1  0
  8  9  1  0
  9 10  1  0
 10 11  1  0
 11 12  1  0
 12 13  2  0
 13 14  1  0
 14 15  2  0
 15 16  1  0
 16 17  2  0
 10 18  1  0
 18 19  1  0
  5 20  1  0
 20 21  2  0
 21 22  1  0
 21  2  1  0
 19  7  1  0
 17 12  1  0
M  END
>  <ChemBL_ID>  (883) 
CHEMBL162807

>  <Compound_Key>  (883) 
9

>  <Ki>  (883) 
7.54

>  <database>  (883) 
CHEMBL

>  <Assay_ChEMBL_ID>  (883) 
CHEMBL813148

>  <Document_ChEMBL_ID>  (883) 
CHEMBL1136602

$$$$

     RDKit          2D

 23 25  0  0  0  0  0  0  0  0999 V2000
   -2.6637    2.1111    0.0000 O   0  0  0  0  0  0  0  0  0  0  0  0
   -2.9809    0.6451    0.0000 C   0  0  0  0  0  0  0  0  0  0  0  0
   -1.8699   -0.3627    0.0000 N   0  0  0  0  0  0  0  0  0  0  0  0
   -0.4416    0.0956    0.0000 C   0  0  0  0  0  0  0  0  0  0  0  0
    0.6694   -0.9122    0.0000 C   0  0  0  0  0  0  0  0  0  0  0  0
    2.0977   -0.4539    0.0000 C   0  0  0  0  0  0  0  0  0  0  0  0
    2.4149    1.0121    0.0000 N   0  0  0  0  0  0  0  0  0  0  0  0
    3.8432    1.4704    0.0000 C   0  0  0  0  0  0  0  0  0  0  0  0
    4.9542    0.4626    0.0000 C   0  0  0  0  0  0  0  0  0  0  0  0
    4.6370   -1.0034    0.0000 C   0  0  0  0  0  0  0  0  0  0  0  0
    5.7480   -2.0112    0.0000 C   0  0  0  0  0  0  0  0  0  0  0  0
    7.1763   -1.5529    0.0000 C   0  0  0  0  0  0  0  0  0  0  0  0
    7.4935   -0.0869    0.0000 C   0  0  0  0  0  0  0  0  0  0  0  0
    6.3825    0.9209    0.0000 C   0  0  0  0  0  0  0  0  0  0  0  0
    1.3039    2.0199    0.0000 C   0  0  0  0  0  0  0  0  0  0  0  0
   -0.1244    1.5616    0.0000 C   0  0  0  0  0  0  0  0  0  0  0  0
   -4.4092    0.1868    0.0000 C   0  0  0  0  0  0  0  0  0  0  0  0
   -5.5202    1.1946    0.0000 C   0  0  0  0  0  0  0  0  0  0  0  0
   -6.9485    0.7363    0.0000 C   0  0  0  0  0  0  0  0  0  0  0  0
   -7.2658   -0.7298    0.0000 C   0  0  0  0  0  0  0  0  0  0  0  0
   -6.1547   -1.7376    0.0000 C   0  0  0  0  0  0  0  0  0  0  0  0
   -4.7265   -1.2793    0.0000 C   0  0  0  0  0  0  0  0  0  0  0  0
   -3.6154   -2.2871    0.0000 I   0  0  0  0  0  0  0  0  0  0  0  0
  1  2  2  0
  2  3  1  0
  3  4  1  0
  4  5  1  0
  5  6  1  0
  6  7  1  0
  7  8  1  0
  8  9  1  0
  9 10  2  0
 10 11  1  0
 11 12  2  0
 12 13  1  0
 13 14  2  0
  7 15  1  0
 15 16  1  0
  2 17  1  0
 17 18  2  0
 18 19  1  0
 19 20  2  0
 20 21  1  0
 21 22  2  0
 22 23  1  0
 16  4  1  0
 22 17  1  0
 14  9  1  0
M  END
>  <ChemBL_ID>  (884) 
CHEMBL46326

>  <Compound_Key>  (884) 
2-IBP

>  <Ki>  (884) 
29.6

>  <database>  (884) 
CHEMBL

>  <Assay_ChEMBL_ID>  (884) 
CHEMBL805228

>  <Document_ChEMBL_ID>  (884) 
CHEMBL1127537

$$$$

     RDKit          2D

 26 28  0  0  0  0  0  0  0  0999 V2000
   -3.2174    2.0203    0.0000 O   0  0  0  0  0  0  0  0  0  0  0  0
   -3.8520    0.6612    0.0000 C   0  0  0  0  0  0  0  0  0  0  0  0
   -2.9922   -0.5680    0.0000 C   0  0  0  0  0  0  0  0  0  0  0  0
   -1.4978   -0.4379    0.0000 C   0  0  0  0  0  0  0  0  0  0  0  0
   -0.6381   -1.6671    0.0000 C   0  0  0  0  0  0  0  0  0  0  0  0
    0.8563   -1.5370    0.0000 N   0  0  0  0  0  0  0  0  0  0  0  0
    1.7161   -2.7662    0.0000 C   0  0  0  0  0  0  0  0  0  0  0  0
    3.2104   -2.6361    0.0000 C   0  0  0  0  0  0  0  0  0  0  0  0
    3.8450   -1.2770    0.0000 C   0  0  0  0  0  0  0  0  0  0  0  0
    5.0733   -2.1379    0.0000 O   0  0  0  0  0  0  0  0  0  0  0  0
    4.9062   -0.2168    0.0000 C   0  0  0  0  0  0  0  0  0  0  0  0
    6.3549   -0.6057    0.0000 C   0  0  0  0  0  0  0  0  0  0  0  0
    7.4160    0.4544    0.0000 C   0  0  0  0  0  0  0  0  0  0  0  0
    7.0285    1.9035    0.0000 C   0  0  0  0  0  0  0  0  0  0  0  0
    8.0897    2.9636    0.0000 Cl  0  0  0  0  0  0  0  0  0  0  0  0
    5.5798    2.2924    0.0000 C   0  0  0  0  0  0  0  0  0  0  0  0
    4.5186    1.2322    0.0000 C   0  0  0  0  0  0  0  0  0  0  0  0
    2.9852   -0.0479    0.0000 C   0  0  0  0  0  0  0  0  0  0  0  0
    1.4909   -0.1779    0.0000 C   0  0  0  0  0  0  0  0  0  0  0  0
   -5.3463    0.5312    0.0000 C   0  0  0  0  0  0  0  0  0  0  0  0
   -6.2061    1.7603    0.0000 C   0  0  0  0  0  0  0  0  0  0  0  0
   -7.7005    1.6303    0.0000 C   0  0  0  0  0  0  0  0  0  0  0  0
   -8.3350    0.2711    0.0000 C   0  0  0  0  0  0  0  0  0  0  0  0
   -9.8294    0.1411    0.0000 F   0  0  0  0  0  0  0  0  0  0  0  0
   -7.4753   -0.9580    0.0000 C   0  0  0  0  0  0  0  0  0  0  0  0
   -5.9809   -0.8280    0.0000 C   0  0  0  0  0  0  0  0  0  0  0  0
  1  2  2  0
  2  3  1  0
  3  4  1  0
  4  5  1  0
  5  6  1  0
  6  7  1  0
  7  8  1  0
  8  9  1  0
  9 10  1  0
  9 11  1  0
 11 12  2  0
 12 13  1  0
 13 14  2  0
 14 15  1  0
 14 16  1  0
 16 17  2  0
  9 18  1  0
 18 19  1  0
  2 20  1  0
 20 21  2  0
 21 22  1  0
 22 23  2  0
 23 24  1  0
 23 25  1  0
 25 26  2  0
 19  6  1  0
 26 20  1  0
 17 11  1  0
M  END
>  <ChemBL_ID>  (885) 
CHEMBL54

>  <Compound_Key>  (885) 
Haloperidol

>  <Ki>  (885) 
18.0

>  <database>  (885) 
CHEMBL

>  <Assay_ChEMBL_ID>  (885) 
CHEMBL805747

>  <Document_ChEMBL_ID>  (885) 
CHEMBL1131008

$$$$

     RDKit          2D

 22 24  0  0  0  0  0  0  0  0999 V2000
   -5.9322   -2.9263    0.0000 Cl  0  0  0  0  0  0  0  0  0  0  0  0
   -5.0735   -1.6964    0.0000 C   0  0  0  0  0  0  0  0  0  0  0  0
   -5.7092   -0.3378    0.0000 C   0  0  0  0  0  0  0  0  0  0  0  0
   -4.8504    0.8921    0.0000 C   0  0  0  0  0  0  0  0  0  0  0  0
   -3.3560    0.7633    0.0000 C   0  0  0  0  0  0  0  0  0  0  0  0
   -2.4972    1.9932    0.0000 C   0  0  0  0  0  0  0  0  0  0  0  0
   -1.0027    1.8644    0.0000 N   0  0  0  0  0  0  0  0  0  0  0  0
   -0.3670    0.5058    0.0000 C   0  0  0  0  0  0  0  0  0  0  0  0
    1.1274    0.3770    0.0000 C   0  0  0  0  0  0  0  0  0  0  0  0
    1.9862    1.6068    0.0000 N   0  0  0  0  0  0  0  0  0  0  0  0
    3.4807    1.4781    0.0000 C   0  0  0  0  0  0  0  0  0  0  0  0
    4.1164    0.1194    0.0000 C   0  0  0  0  0  0  0  0  0  0  0  0
    3.2576   -1.1104    0.0000 C   0  0  0  0  0  0  0  0  0  0  0  0
    3.8933   -2.4691    0.0000 C   0  0  0  0  0  0  0  0  0  0  0  0
    5.3878   -2.5978    0.0000 C   0  0  0  0  0  0  0  0  0  0  0  0
    6.2465   -1.3680    0.0000 C   0  0  0  0  0  0  0  0  0  0  0  0
    5.6108   -0.0094    0.0000 C   0  0  0  0  0  0  0  0  0  0  0  0
    1.3505    2.9655    0.0000 C   0  0  0  0  0  0  0  0  0  0  0  0
   -0.1440    3.0942    0.0000 C   0  0  0  0  0  0  0  0  0  0  0  0
   -2.7202   -0.5953    0.0000 C   0  0  0  0  0  0  0  0  0  0  0  0
   -1.2258   -0.7241    0.0000 Cl  0  0  0  0  0  0  0  0  0  0  0  0
   -3.5790   -1.8252    0.0000 C   0  0  0  0  0  0  0  0  0  0  0  0
  1  2  1  0
  2  3  2  0
  3  4  1  0
  4  5  2  0
  5  6  1  0
  6  7  1  0
  7  8  1  0
  8  9  1  0
  9 10  1  0
 10 11  1  0
 11 12  1  0
 12 13  2  0
 13 14  1  0
 14 15  2  0
 15 16  1  0
 16 17  2  0
 10 18  1  0
 18 19  1  0
  5 20  1  0
 20 21  1  0
 20 22  2  0
 22  2  1  0
 19  7  1  0
 17 12  1  0
M  END
>  <ChemBL_ID>  (886) 
CHEMBL422020

>  <Compound_Key>  (886) 
10

>  <Ki>  (886) 
123.0

>  <database>  (886) 
CHEMBL

>  <Assay_ChEMBL_ID>  (886) 
CHEMBL813148

>  <Document_ChEMBL_ID>  (886) 
CHEMBL1136602

$$$$

     RDKit          2D

 21 23  0  0  0  0  0  0  0  0999 V2000
   -1.4349   -0.9805    0.0000 Cl  0  0  0  0  0  0  0  0  0  0  0  0
   -2.9349   -0.9708    0.0000 C   0  0  0  0  0  0  0  0  0  0  0  0
   -3.6933   -2.2650    0.0000 C   0  0  0  0  0  0  0  0  0  0  0  0
   -5.1933   -2.2553    0.0000 C   0  0  0  0  0  0  0  0  0  0  0  0
   -5.9348   -0.9514    0.0000 C   0  0  0  0  0  0  0  0  0  0  0  0
   -5.1765    0.3428    0.0000 C   0  0  0  0  0  0  0  0  0  0  0  0
   -3.6765    0.3331    0.0000 C   0  0  0  0  0  0  0  0  0  0  0  0
   -2.9181    1.6272    0.0000 C   0  0  0  0  0  0  0  0  0  0  0  0
   -1.4181    1.6175    0.0000 N   0  0  0  0  0  0  0  0  0  0  0  0
   -0.6766    0.3137    0.0000 C   0  0  0  0  0  0  0  0  0  0  0  0
    0.8234    0.3040    0.0000 C   0  0  0  0  0  0  0  0  0  0  0  0
    1.5818    1.5981    0.0000 N   0  0  0  0  0  0  0  0  0  0  0  0
    3.0818    1.5885    0.0000 C   0  0  0  0  0  0  0  0  0  0  0  0
    3.8233    0.2846    0.0000 C   0  0  0  0  0  0  0  0  0  0  0  0
    3.0650   -1.0096    0.0000 C   0  0  0  0  0  0  0  0  0  0  0  0
    3.8066   -2.3134    0.0000 C   0  0  0  0  0  0  0  0  0  0  0  0
    5.3065   -2.3231    0.0000 C   0  0  0  0  0  0  0  0  0  0  0  0
    6.0649   -1.0290    0.0000 C   0  0  0  0  0  0  0  0  0  0  0  0
    5.3233    0.2749    0.0000 C   0  0  0  0  0  0  0  0  0  0  0  0
    0.8402    2.9020    0.0000 C   0  0  0  0  0  0  0  0  0  0  0  0
   -0.6598    2.9117    0.0000 C   0  0  0  0  0  0  0  0  0  0  0  0
  1  2  1  0
  2  3  2  0
  3  4  1  0
  4  5  2  0
  5  6  1  0
  6  7  2  0
  7  8  1  0
  8  9  1  0
  9 10  1  0
 10 11  1  0
 11 12  1  0
 12 13  1  0
 13 14  1  0
 14 15  2  0
 15 16  1  0
 16 17  2  0
 17 18  1  0
 18 19  2  0
 12 20  1  0
 20 21  1  0
  7  2  1  0
 21  9  1  0
 19 14  1  0
M  END
>  <ChemBL_ID>  (887) 
CHEMBL349288

>  <Compound_Key>  (887) 
6

>  <Ki>  (887) 
527.0

>  <database>  (887) 
CHEMBL

>  <Assay_ChEMBL_ID>  (887) 
CHEMBL813148

>  <Document_ChEMBL_ID>  (887) 
CHEMBL1136602

$$$$

     RDKit          2D

 20 22  0  0  0  0  0  0  0  0999 V2000
   -5.2500   -2.3383    0.0000 C   0  0  0  0  0  0  0  0  0  0  0  0
   -6.0000   -1.0392    0.0000 C   0  0  0  0  0  0  0  0  0  0  0  0
   -5.2500    0.2598    0.0000 C   0  0  0  0  0  0  0  0  0  0  0  0
   -3.7500    0.2598    0.0000 C   0  0  0  0  0  0  0  0  0  0  0  0
   -3.0000    1.5588    0.0000 C   0  0  0  0  0  0  0  0  0  0  0  0
   -1.5000    1.5588    0.0000 N   0  0  0  0  0  0  0  0  0  0  0  0
   -0.7500    0.2598    0.0000 C   0  0  0  0  0  0  0  0  0  0  0  0
    0.7500    0.2598    0.0000 C   0  0  0  0  0  0  0  0  0  0  0  0
    1.5000    1.5588    0.0000 N   0  0  0  0  0  0  0  0  0  0  0  0
    3.0000    1.5588    0.0000 C   0  0  0  0  0  0  0  0  0  0  0  0
    3.7500    0.2598    0.0000 C   0  0  0  0  0  0  0  0  0  0  0  0
    3.0000   -1.0392    0.0000 C   0  0  0  0  0  0  0  0  0  0  0  0
    3.7500   -2.3383    0.0000 C   0  0  0  0  0  0  0  0  0  0  0  0
    5.2500   -2.3383    0.0000 C   0  0  0  0  0  0  0  0  0  0  0  0
    6.0000   -1.0392    0.0000 C   0  0  0  0  0  0  0  0  0  0  0  0
    5.2500    0.2598    0.0000 C   0  0  0  0  0  0  0  0  0  0  0  0
    0.7500    2.8579    0.0000 C   0  0  0  0  0  0  0  0  0  0  0  0
   -0.7500    2.8579    0.0000 C   0  0  0  0  0  0  0  0  0  0  0  0
   -3.0000   -1.0392    0.0000 C   0  0  0  0  0  0  0  0  0  0  0  0
   -3.7500   -2.3383    0.0000 C   0  0  0  0  0  0  0  0  0  0  0  0
  1  2  2  0
  2  3  1  0
  3  4  2  0
  4  5  1  0
  5  6  1  0
  6  7  1  0
  7  8  1  0
  8  9  1  0
  9 10  1  0
 10 11  1  0
 11 12  2  0
 12 13  1  0
 13 14  2  0
 14 15  1  0
 15 16  2  0
  9 17  1  0
 17 18  1  0
  4 19  1  0
 19 20  2  0
 20  1  1  0
 18  6  1  0
 16 11  1  0
M  END
>  <ChemBL_ID>  (888) 
CHEMBL162522

>  <Compound_Key>  (888) 
3

>  <Ki>  (888) 
1274.0

>  <database>  (888) 
CHEMBL

>  <Assay_ChEMBL_ID>  (888) 
CHEMBL813148

>  <Document_ChEMBL_ID>  (888) 
CHEMBL1136602

$$$$

     RDKit          2D

 21 23  0  0  0  0  0  0  0  0999 V2000
   -3.0139   -3.3286    0.0000 Cl  0  0  0  0  0  0  0  0  0  0  0  0
   -3.7032   -1.9964    0.0000 C   0  0  0  0  0  0  0  0  0  0  0  0
   -5.2016   -1.9272    0.0000 C   0  0  0  0  0  0  0  0  0  0  0  0
   -5.8909   -0.5949    0.0000 C   0  0  0  0  0  0  0  0  0  0  0  0
   -5.0817    0.6681    0.0000 C   0  0  0  0  0  0  0  0  0  0  0  0
   -3.5833    0.5989    0.0000 C   0  0  0  0  0  0  0  0  0  0  0  0
   -2.7742    1.8620    0.0000 C   0  0  0  0  0  0  0  0  0  0  0  0
   -1.2758    1.7928    0.0000 N   0  0  0  0  0  0  0  0  0  0  0  0
   -0.5865    0.4606    0.0000 C   0  0  0  0  0  0  0  0  0  0  0  0
    0.9119    0.3914    0.0000 C   0  0  0  0  0  0  0  0  0  0  0  0
    1.7210    1.6544    0.0000 N   0  0  0  0  0  0  0  0  0  0  0  0
    3.2194    1.5852    0.0000 C   0  0  0  0  0  0  0  0  0  0  0  0
    3.9087    0.2530    0.0000 C   0  0  0  0  0  0  0  0  0  0  0  0
    3.0996   -1.0101    0.0000 C   0  0  0  0  0  0  0  0  0  0  0  0
    3.7888   -2.3423    0.0000 C   0  0  0  0  0  0  0  0  0  0  0  0
    5.2872   -2.4115    0.0000 C   0  0  0  0  0  0  0  0  0  0  0  0
    6.0964   -1.1485    0.0000 C   0  0  0  0  0  0  0  0  0  0  0  0
    5.4071    0.1838    0.0000 C   0  0  0  0  0  0  0  0  0  0  0  0
    1.0317    2.9867    0.0000 C   0  0  0  0  0  0  0  0  0  0  0  0
   -0.4667    3.0559    0.0000 C   0  0  0  0  0  0  0  0  0  0  0  0
   -2.8940   -0.7333    0.0000 C   0  0  0  0  0  0  0  0  0  0  0  0
  1  2  1  0
  2  3  2  0
  3  4  1  0
  4  5  2  0
  5  6  1  0
  6  7  1  0
  7  8  1  0
  8  9  1  0
  9 10  1  0
 10 11  1  0
 11 12  1  0
 12 13  1  0
 13 14  2  0
 14 15  1  0
 15 16  2  0
 16 17  1  0
 17 18  2  0
 11 19  1  0
 19 20  1  0
  6 21  2  0
 21  2  1  0
 20  8  1  0
 18 13  1  0
M  END
>  <ChemBL_ID>  (889) 
CHEMBL164124

>  <Compound_Key>  (889) 
7

>  <Ki>  (889) 
56.4

>  <database>  (889) 
CHEMBL

>  <Assay_ChEMBL_ID>  (889) 
CHEMBL813148

>  <Document_ChEMBL_ID>  (889) 
CHEMBL1136602

$$$$

     RDKit          2D

 22 24  0  0  0  0  0  0  0  0999 V2000
   -7.3033   -2.2401    0.0000 C   0  0  0  0  0  0  0  0  0  0  0  0
   -5.8201   -2.4643    0.0000 O   0  0  0  0  0  0  0  0  0  0  0  0
   -4.8844   -1.2920    0.0000 C   0  0  0  0  0  0  0  0  0  0  0  0
   -5.4318    0.1046    0.0000 C   0  0  0  0  0  0  0  0  0  0  0  0
   -4.4960    1.2769    0.0000 C   0  0  0  0  0  0  0  0  0  0  0  0
   -3.0129    1.0527    0.0000 C   0  0  0  0  0  0  0  0  0  0  0  0
   -2.0771    2.2250    0.0000 C   0  0  0  0  0  0  0  0  0  0  0  0
   -0.5939    2.0008    0.0000 N   0  0  0  0  0  0  0  0  0  0  0  0
   -0.0466    0.6042    0.0000 C   0  0  0  0  0  0  0  0  0  0  0  0
    1.4366    0.3800    0.0000 C   0  0  0  0  0  0  0  0  0  0  0  0
    2.3723    1.5523    0.0000 N   0  0  0  0  0  0  0  0  0  0  0  0
    3.8555    1.3281    0.0000 C   0  0  0  0  0  0  0  0  0  0  0  0
    4.4029   -0.0685    0.0000 C   0  0  0  0  0  0  0  0  0  0  0  0
    3.4671   -1.2408    0.0000 C   0  0  0  0  0  0  0  0  0  0  0  0
    4.0145   -2.6374    0.0000 C   0  0  0  0  0  0  0  0  0  0  0  0
    5.4976   -2.8616    0.0000 C   0  0  0  0  0  0  0  0  0  0  0  0
    6.4334   -1.6893    0.0000 C   0  0  0  0  0  0  0  0  0  0  0  0
    5.8860   -0.2927    0.0000 C   0  0  0  0  0  0  0  0  0  0  0  0
    1.8250    2.9489    0.0000 C   0  0  0  0  0  0  0  0  0  0  0  0
    0.3418    3.1731    0.0000 C   0  0  0  0  0  0  0  0  0  0  0  0
   -2.4655   -0.3439    0.0000 C   0  0  0  0  0  0  0  0  0  0  0  0
   -3.4012   -1.5162    0.0000 C   0  0  0  0  0  0  0  0  0  0  0  0
  1  2  1  0
  2  3  1  0
  3  4  2  0
  4  5  1  0
  5  6  2  0
  6  7  1  0
  7  8  1  0
  8  9  1  0
  9 10  1  0
 10 11  1  0
 11 12  1  0
 12 13  1  0
 13 14  2  0
 14 15  1  0
 15 16  2  0
 16 17  1  0
 17 18  2  0
 11 19  1  0
 19 20  1  0
  6 21  1  0
 21 22  2  0
 22  3  1  0
 20  8  1  0
 18 13  1  0
M  END
>  <ChemBL_ID>  (890) 
CHEMBL163876

>  <Compound_Key>  (890) 
5

>  <Ki>  (890) 
161.0

>  <database>  (890) 
CHEMBL

>  <Assay_ChEMBL_ID>  (890) 
CHEMBL813148

>  <Document_ChEMBL_ID>  (890) 
CHEMBL1136602

$$$$

     RDKit          2D

 22 24  0  0  0  0  0  0  0  0999 V2000
   -3.9707   -4.0940    0.0000 C   0  0  0  0  0  0  0  0  0  0  0  0
   -3.0682   -2.8959    0.0000 O   0  0  0  0  0  0  0  0  0  0  0  0
   -3.6546   -1.5152    0.0000 C   0  0  0  0  0  0  0  0  0  0  0  0
   -5.1435   -1.3328    0.0000 C   0  0  0  0  0  0  0  0  0  0  0  0
   -5.7299    0.0478    0.0000 C   0  0  0  0  0  0  0  0  0  0  0  0
   -4.8275    1.2460    0.0000 C   0  0  0  0  0  0  0  0  0  0  0  0
   -3.3386    1.0635    0.0000 C   0  0  0  0  0  0  0  0  0  0  0  0
   -2.4362    2.2617    0.0000 C   0  0  0  0  0  0  0  0  0  0  0  0
   -0.9473    2.0792    0.0000 N   0  0  0  0  0  0  0  0  0  0  0  0
   -0.3609    0.6986    0.0000 C   0  0  0  0  0  0  0  0  0  0  0  0
    1.1280    0.5161    0.0000 C   0  0  0  0  0  0  0  0  0  0  0  0
    2.0304    1.7143    0.0000 N   0  0  0  0  0  0  0  0  0  0  0  0
    3.5193    1.5318    0.0000 C   0  0  0  0  0  0  0  0  0  0  0  0
    4.1057    0.1512    0.0000 C   0  0  0  0  0  0  0  0  0  0  0  0
    3.2033   -1.0470    0.0000 C   0  0  0  0  0  0  0  0  0  0  0  0
    3.7897   -2.4276    0.0000 C   0  0  0  0  0  0  0  0  0  0  0  0
    5.2785   -2.6100    0.0000 C   0  0  0  0  0  0  0  0  0  0  0  0
    6.1810   -1.4119    0.0000 C   0  0  0  0  0  0  0  0  0  0  0  0
    5.5946   -0.0313    0.0000 C   0  0  0  0  0  0  0  0  0  0  0  0
    1.4440    3.0949    0.0000 C   0  0  0  0  0  0  0  0  0  0  0  0
   -0.0448    3.2774    0.0000 C   0  0  0  0  0  0  0  0  0  0  0  0
   -2.7522   -0.3171    0.0000 C   0  0  0  0  0  0  0  0  0  0  0  0
  1  2  1  0
  2  3  1  0
  3  4  2  0
  4  5  1  0
  5  6  2  0
  6  7  1  0
  7  8  1  0
  8  9  1  0
  9 10  1  0
 10 11  1  0
 11 12  1  0
 12 13  1  0
 13 14  1  0
 14 15  2  0
 15 16  1  0
 16 17  2  0
 17 18  1  0
 18 19  2  0
 12 20  1  0
 20 21  1  0
  7 22  2  0
 22  3  1  0
 21  9  1  0
 19 14  1  0
M  END
>  <ChemBL_ID>  (891) 
CHEMBL165848

>  <Compound_Key>  (891) 
4

>  <Ki>  (891) 
107.8

>  <database>  (891) 
CHEMBL

>  <Assay_ChEMBL_ID>  (891) 
CHEMBL813148

>  <Document_ChEMBL_ID>  (891) 
CHEMBL1136602

$$$$

     RDKit          2D

 25 27  0  0  0  0  0  0  0  0999 V2000
    2.1054    0.2666    0.0000 O   0  0  0  0  0  0  0  0  0  0  0  0
    2.7270   -1.0985    0.0000 C   0  0  0  0  0  0  0  0  0  0  0  0
    4.2201   -1.2427    0.0000 C   0  0  0  0  0  0  0  0  0  0  0  0
    5.0915   -0.0218    0.0000 C   0  0  0  0  0  0  0  0  0  0  0  0
    6.5845   -0.1659    0.0000 C   0  0  0  0  0  0  0  0  0  0  0  0
    7.4559    1.0550    0.0000 C   0  0  0  0  0  0  0  0  0  0  0  0
    6.8342    2.4201    0.0000 C   0  0  0  0  0  0  0  0  0  0  0  0
    5.3412    2.5643    0.0000 C   0  0  0  0  0  0  0  0  0  0  0  0
    4.4698    1.3434    0.0000 C   0  0  0  0  0  0  0  0  0  0  0  0
    2.9767    1.4875    0.0000 F   0  0  0  0  0  0  0  0  0  0  0  0
    1.8557   -2.3195    0.0000 N   0  0  0  0  0  0  0  0  0  0  0  0
    0.3626   -2.1753    0.0000 C   0  0  0  0  0  0  0  0  0  0  0  0
   -0.2591   -0.8102    0.0000 C   0  0  0  0  0  0  0  0  0  0  0  0
   -1.7521   -0.6661    0.0000 C   0  0  0  0  0  0  0  0  0  0  0  0
   -2.6235   -1.8870    0.0000 N   0  0  0  0  0  0  0  0  0  0  0  0
   -4.1165   -1.7429    0.0000 C   0  0  0  0  0  0  0  0  0  0  0  0
   -4.7382   -0.3778    0.0000 C   0  0  0  0  0  0  0  0  0  0  0  0
   -3.8669    0.8432    0.0000 C   0  0  0  0  0  0  0  0  0  0  0  0
   -4.4886    2.2083    0.0000 C   0  0  0  0  0  0  0  0  0  0  0  0
   -5.9816    2.3524    0.0000 C   0  0  0  0  0  0  0  0  0  0  0  0
   -6.6033    3.7175    0.0000 F   0  0  0  0  0  0  0  0  0  0  0  0
   -6.8530    1.1315    0.0000 C   0  0  0  0  0  0  0  0  0  0  0  0
   -6.2313   -0.2336    0.0000 C   0  0  0  0  0  0  0  0  0  0  0  0
   -2.0018   -3.2521    0.0000 C   0  0  0  0  0  0  0  0  0  0  0  0
   -0.5087   -3.3963    0.0000 C   0  0  0  0  0  0  0  0  0  0  0  0
  1  2  2  0
  2  3  1  0
  3  4  1  0
  4  5  2  0
  5  6  1  0
  6  7  2  0
  7  8  1  0
  8  9  2  0
  9 10  1  0
  2 11  1  0
 11 12  1  0
 12 13  1  0
 13 14  1  0
 14 15  1  0
 15 16  1  0
 16 17  1  0
 17 18  2  0
 18 19  1  0
 19 20  2  0
 20 21  1  0
 20 22  1  0
 22 23  2  0
 15 24  1  0
 24 25  1  0
  9  4  1  0
 25 12  1  0
 23 17  1  0
M  END
>  <ChemBL_ID>  (892) 
CHEMBL135083

>  <Compound_Key>  (892) 
32

>  <Ki>  (892) 
139.51

>  <database>  (892) 
CHEMBL

>  <Assay_ChEMBL_ID>  (892) 
CHEMBL846104

>  <Document_ChEMBL_ID>  (892) 
CHEMBL1134305

$$$$

     RDKit          2D

 22 24  0  0  0  0  0  0  0  0999 V2000
   -2.9640    0.9515    0.0000 O   0  0  0  0  0  0  0  0  0  0  0  0
   -3.0182   -0.5475    0.0000 C   0  0  0  0  0  0  0  0  0  0  0  0
   -4.3436   -1.2500    0.0000 C   0  0  0  0  0  0  0  0  0  0  0  0
   -5.6146   -0.4535    0.0000 C   0  0  0  0  0  0  0  0  0  0  0  0
   -7.0061   -1.0136    0.0000 C   0  0  0  0  0  0  0  0  0  0  0  0
   -7.9688    0.1367    0.0000 C   0  0  0  0  0  0  0  0  0  0  0  0
   -7.1723    1.4078    0.0000 S   0  0  0  0  0  0  0  0  0  0  0  0
   -5.7173    1.0430    0.0000 C   0  0  0  0  0  0  0  0  0  0  0  0
   -1.7472   -1.3440    0.0000 N   0  0  0  0  0  0  0  0  0  0  0  0
   -0.4219   -0.6415    0.0000 C   0  0  0  0  0  0  0  0  0  0  0  0
    0.8492   -1.4380    0.0000 C   0  0  0  0  0  0  0  0  0  0  0  0
    2.1745   -0.7355    0.0000 C   0  0  0  0  0  0  0  0  0  0  0  0
    2.2288    0.7635    0.0000 N   0  0  0  0  0  0  0  0  0  0  0  0
    3.5541    1.4660    0.0000 C   0  0  0  0  0  0  0  0  0  0  0  0
    4.8252    0.6695    0.0000 C   0  0  0  0  0  0  0  0  0  0  0  0
    4.7709   -0.8296    0.0000 C   0  0  0  0  0  0  0  0  0  0  0  0
    6.0419   -1.6261    0.0000 C   0  0  0  0  0  0  0  0  0  0  0  0
    7.3673   -0.9236    0.0000 C   0  0  0  0  0  0  0  0  0  0  0  0
    7.4215    0.5754    0.0000 C   0  0  0  0  0  0  0  0  0  0  0  0
    6.1505    1.3719    0.0000 C   0  0  0  0  0  0  0  0  0  0  0  0
    0.9577    1.5600    0.0000 C   0  0  0  0  0  0  0  0  0  0  0  0
   -0.3676    0.8575    0.0000 C   0  0  0  0  0  0  0  0  0  0  0  0
  1  2  2  0
  2  3  1  0
  3  4  1  0
  4  5  1  0
  5  6  2  0
  6  7  1  0
  7  8  1  0
  2  9  1  0
  9 10  1  0
 10 11  1  0
 11 12  1  0
 12 13  1  0
 13 14  1  0
 14 15  1  0
 15 16  2  0
 16 17  1  0
 17 18  2  0
 18 19  1  0
 19 20  2  0
 13 21  1  0
 21 22  1  0
  8  4  2  0
 22 10  1  0
 20 15  1  0
M  END
>  <ChemBL_ID>  (893) 
CHEMBL138249

>  <Compound_Key>  (893) 
2

>  <Ki>  (893) 
336.74

>  <database>  (893) 
CHEMBL

>  <Assay_ChEMBL_ID>  (893) 
CHEMBL846104

>  <Document_ChEMBL_ID>  (893) 
CHEMBL1134305

$$$$

     RDKit          2D

 25 27  0  0  0  0  0  0  0  0999 V2000
    2.5484    0.3547    0.0000 O   0  0  0  0  0  0  0  0  0  0  0  0
    3.2124   -0.9904    0.0000 C   0  0  0  0  0  0  0  0  0  0  0  0
    4.7092   -1.0879    0.0000 C   0  0  0  0  0  0  0  0  0  0  0  0
    5.5421    0.1597    0.0000 C   0  0  0  0  0  0  0  0  0  0  0  0
    7.0389    0.0622    0.0000 C   0  0  0  0  0  0  0  0  0  0  0  0
    7.8718    1.3097    0.0000 C   0  0  0  0  0  0  0  0  0  0  0  0
    7.2078    2.6547    0.0000 C   0  0  0  0  0  0  0  0  0  0  0  0
    5.7110    2.7522    0.0000 C   0  0  0  0  0  0  0  0  0  0  0  0
    4.8781    1.5047    0.0000 C   0  0  0  0  0  0  0  0  0  0  0  0
    2.3796   -2.2379    0.0000 N   0  0  0  0  0  0  0  0  0  0  0  0
    0.8827   -2.1404    0.0000 C   0  0  0  0  0  0  0  0  0  0  0  0
    0.2188   -0.7953    0.0000 C   0  0  0  0  0  0  0  0  0  0  0  0
   -1.2781   -0.6978    0.0000 C   0  0  0  0  0  0  0  0  0  0  0  0
   -2.1109   -1.9453    0.0000 N   0  0  0  0  0  0  0  0  0  0  0  0
   -3.6078   -1.8478    0.0000 C   0  0  0  0  0  0  0  0  0  0  0  0
   -4.2717   -0.5028    0.0000 C   0  0  0  0  0  0  0  0  0  0  0  0
   -3.4389    0.7447    0.0000 C   0  0  0  0  0  0  0  0  0  0  0  0
   -4.1028    2.0898    0.0000 C   0  0  0  0  0  0  0  0  0  0  0  0
   -5.5997    2.1873    0.0000 C   0  0  0  0  0  0  0  0  0  0  0  0
   -6.2636    3.5324    0.0000 F   0  0  0  0  0  0  0  0  0  0  0  0
   -6.4325    0.9398    0.0000 C   0  0  0  0  0  0  0  0  0  0  0  0
   -7.9293    1.0373    0.0000 F   0  0  0  0  0  0  0  0  0  0  0  0
   -5.7685   -0.4053    0.0000 C   0  0  0  0  0  0  0  0  0  0  0  0
   -1.4470   -3.2904    0.0000 C   0  0  0  0  0  0  0  0  0  0  0  0
    0.0499   -3.3879    0.0000 C   0  0  0  0  0  0  0  0  0  0  0  0
  1  2  2  0
  2  3  1  0
  3  4  1  0
  4  5  2  0
  5  6  1  0
  6  7  2  0
  7  8  1  0
  8  9  2  0
  2 10  1  0
 10 11  1  0
 11 12  1  0
 12 13  1  0
 13 14  1  0
 14 15  1  0
 15 16  1  0
 16 17  2  0
 17 18  1  0
 18 19  2  0
 19 20  1  0
 19 21  1  0
 21 22  1  0
 21 23  2  0
 14 24  1  0
 24 25  1  0
  9  4  1  0
 25 11  1  0
 23 16  1  0
M  END
>  <ChemBL_ID>  (894) 
CHEMBL344023

>  <Compound_Key>  (894) 
28

>  <Ki>  (894) 
231.61

>  <database>  (894) 
CHEMBL

>  <Assay_ChEMBL_ID>  (894) 
CHEMBL846104

>  <Document_ChEMBL_ID>  (894) 
CHEMBL1134305

$$$$

     RDKit          2D

 23 26  0  0  0  0  0  0  0  0999 V2000
    1.9655   -2.3358    0.0000 O   0  0  0  0  0  1  0  0  0  0  0  0
    2.2068   -0.8553    0.0000 S   0  0  0  0  0  3  0  0  0  0  0  0
    3.6096   -0.3241    0.0000 C   0  0  0  0  0  0  0  0  0  0  0  0
    4.7710   -1.2733    0.0000 C   0  0  0  0  0  0  0  0  0  0  0  0
    6.1738   -0.7421    0.0000 C   0  0  0  0  0  0  0  0  0  0  0  0
    6.4152    0.7384    0.0000 C   0  0  0  0  0  0  0  0  0  0  0  0
    5.2537    1.6876    0.0000 C   0  0  0  0  0  0  0  0  0  0  0  0
    3.8509    1.1564    0.0000 C   0  0  0  0  0  0  0  0  0  0  0  0
    2.6895    2.1056    0.0000 C   0  0  0  0  0  0  0  0  0  0  0  0
    1.2867    1.5744    0.0000 C   0  0  0  0  0  0  0  0  0  0  0  0
    1.0454    0.0939    0.0000 C   0  0  0  0  0  0  0  0  0  0  0  0
   -0.1161    1.0431    0.0000 C   0  0  0  0  0  0  0  0  0  0  0  0
   -1.5189    0.5119    0.0000 C   0  0  0  0  0  0  0  0  0  0  0  0
   -1.7602   -0.9686    0.0000 N   0  0  0  0  0  0  0  0  0  0  0  0
   -3.1630   -1.4998    0.0000 C   0  0  0  0  0  0  0  0  0  0  0  0
   -4.3244   -0.5506    0.0000 C   0  0  0  0  0  0  0  0  0  0  0  0
   -4.0831    0.9299    0.0000 C   0  0  0  0  0  0  0  0  0  0  0  0
   -5.2446    1.8791    0.0000 C   0  0  0  0  0  0  0  0  0  0  0  0
   -6.6473    1.3479    0.0000 C   0  0  0  0  0  0  0  0  0  0  0  0
   -6.8887   -0.1326    0.0000 C   0  0  0  0  0  0  0  0  0  0  0  0
   -5.7272   -1.0818    0.0000 C   0  0  0  0  0  0  0  0  0  0  0  0
   -0.5987   -1.9178    0.0000 C   0  0  0  0  0  0  0  0  0  0  0  0
    0.8040   -1.3866    0.0000 C   0  0  0  0  0  0  0  0  0  0  0  0
  1  2  1  0
  2  3  1  0
  3  4  2  0
  4  5  1  0
  5  6  2  0
  6  7  1  0
  7  8  2  0
  8  9  1  0
  9 10  1  0
 10 11  1  0
 11 12  1  0
 12 13  1  0
 13 14  1  0
 14 15  1  0
 15 16  1  0
 16 17  2  0
 17 18  1  0
 18 19  2  0
 19 20  1  0
 20 21  2  0
 14 22  1  0
 22 23  1  0
 11  2  1  0
 21 16  1  0
  8  3  1  0
 23 11  1  0
M  CHG  2   1  -1   2   1
M  END
>  <ChemBL_ID>  (895) 
CHEMBL38085

>  <Compound_Key>  (895) 
3

>  <Ki>  (895) 
1700.0

>  <database>  (895) 
CHEMBL

>  <Assay_ChEMBL_ID>  (895) 
CHEMBL805217

>  <Document_ChEMBL_ID>  (895) 
CHEMBL1131209

$$$$

     RDKit          2D

 25 27  0  0  0  0  0  0  0  0999 V2000
    2.0401    0.1028    0.0000 O   0  0  0  0  0  0  0  0  0  0  0  0
    2.6172   -1.2817    0.0000 C   0  0  0  0  0  0  0  0  0  0  0  0
    4.1048   -1.4742    0.0000 C   0  0  0  0  0  0  0  0  0  0  0  0
    5.0153   -0.2821    0.0000 C   0  0  0  0  0  0  0  0  0  0  0  0
    6.5029   -0.4746    0.0000 C   0  0  0  0  0  0  0  0  0  0  0  0
    7.4133    0.7175    0.0000 C   0  0  0  0  0  0  0  0  0  0  0  0
    6.8362    2.1020    0.0000 C   0  0  0  0  0  0  0  0  0  0  0  0
    5.3486    2.2945    0.0000 C   0  0  0  0  0  0  0  0  0  0  0  0
    4.7715    3.6790    0.0000 Cl  0  0  0  0  0  0  0  0  0  0  0  0
    4.4381    1.1024    0.0000 C   0  0  0  0  0  0  0  0  0  0  0  0
    1.7067   -2.4738    0.0000 N   0  0  0  0  0  0  0  0  0  0  0  0
    0.2191   -2.2813    0.0000 C   0  0  0  0  0  0  0  0  0  0  0  0
   -0.3580   -0.8968    0.0000 C   0  0  0  0  0  0  0  0  0  0  0  0
   -1.8456   -0.7043    0.0000 C   0  0  0  0  0  0  0  0  0  0  0  0
   -2.7561   -1.8964    0.0000 N   0  0  0  0  0  0  0  0  0  0  0  0
   -4.2437   -1.7039    0.0000 C   0  0  0  0  0  0  0  0  0  0  0  0
   -4.8208   -0.3194    0.0000 C   0  0  0  0  0  0  0  0  0  0  0  0
   -3.9104    0.8727    0.0000 C   0  0  0  0  0  0  0  0  0  0  0  0
   -4.4875    2.2572    0.0000 C   0  0  0  0  0  0  0  0  0  0  0  0
   -5.9751    2.4497    0.0000 C   0  0  0  0  0  0  0  0  0  0  0  0
   -6.5522    3.8342    0.0000 F   0  0  0  0  0  0  0  0  0  0  0  0
   -6.8856    1.2576    0.0000 C   0  0  0  0  0  0  0  0  0  0  0  0
   -6.3084   -0.1269    0.0000 C   0  0  0  0  0  0  0  0  0  0  0  0
   -2.1790   -3.2809    0.0000 C   0  0  0  0  0  0  0  0  0  0  0  0
   -0.6914   -3.4734    0.0000 C   0  0  0  0  0  0  0  0  0  0  0  0
  1  2  2  0
  2  3  1  0
  3  4  1  0
  4  5  2  0
  5  6  1  0
  6  7  2  0
  7  8  1  0
  8  9  1  0
  8 10  2  0
  2 11  1  0
 11 12  1  0
 12 13  1  0
 13 14  1  0
 14 15  1  0
 15 16  1  0
 16 17  1  0
 17 18  2  0
 18 19  1  0
 19 20  2  0
 20 21  1  0
 20 22  1  0
 22 23  2  0
 15 24  1  0
 24 25  1  0
 10  4  1  0
 25 12  1  0
 23 17  1  0
M  END
>  <ChemBL_ID>  (896) 
CHEMBL139340

>  <Compound_Key>  (896) 
38

>  <Ki>  (896) 
9.38

>  <database>  (896) 
CHEMBL

>  <Assay_ChEMBL_ID>  (896) 
CHEMBL846104

>  <Document_ChEMBL_ID>  (896) 
CHEMBL1134305

$$$$

     RDKit          2D

 25 27  0  0  0  0  0  0  0  0999 V2000
    2.1175    0.1407    0.0000 O   0  0  0  0  0  0  0  0  0  0  0  0
    2.6568   -1.2590    0.0000 C   0  0  0  0  0  0  0  0  0  0  0  0
    4.1386   -1.4919    0.0000 C   0  0  0  0  0  0  0  0  0  0  0  0
    5.0811   -0.3250    0.0000 C   0  0  0  0  0  0  0  0  0  0  0  0
    6.5630   -0.5579    0.0000 C   0  0  0  0  0  0  0  0  0  0  0  0
    7.5055    0.6090    0.0000 C   0  0  0  0  0  0  0  0  0  0  0  0
    6.9662    2.0087    0.0000 C   0  0  0  0  0  0  0  0  0  0  0  0
    5.4844    2.2416    0.0000 C   0  0  0  0  0  0  0  0  0  0  0  0
    4.9452    3.6413    0.0000 F   0  0  0  0  0  0  0  0  0  0  0  0
    4.5419    1.0747    0.0000 C   0  0  0  0  0  0  0  0  0  0  0  0
    1.7142   -2.4259    0.0000 N   0  0  0  0  0  0  0  0  0  0  0  0
    0.2324   -2.1931    0.0000 C   0  0  0  0  0  0  0  0  0  0  0  0
   -0.3069   -0.7934    0.0000 C   0  0  0  0  0  0  0  0  0  0  0  0
   -1.7887   -0.5605    0.0000 C   0  0  0  0  0  0  0  0  0  0  0  0
   -2.7312   -1.7274    0.0000 N   0  0  0  0  0  0  0  0  0  0  0  0
   -4.2131   -1.4946    0.0000 C   0  0  0  0  0  0  0  0  0  0  0  0
   -4.7523   -0.0948    0.0000 C   0  0  0  0  0  0  0  0  0  0  0  0
   -3.8098    1.0720    0.0000 C   0  0  0  0  0  0  0  0  0  0  0  0
   -4.3490    2.4717    0.0000 C   0  0  0  0  0  0  0  0  0  0  0  0
   -5.8309    2.7046    0.0000 C   0  0  0  0  0  0  0  0  0  0  0  0
   -6.7734    1.5377    0.0000 C   0  0  0  0  0  0  0  0  0  0  0  0
   -8.2552    1.7705    0.0000 I   0  0  0  0  0  0  0  0  0  0  0  0
   -6.2341    0.1380    0.0000 C   0  0  0  0  0  0  0  0  0  0  0  0
   -2.1920   -3.1271    0.0000 C   0  0  0  0  0  0  0  0  0  0  0  0
   -0.7102   -3.3600    0.0000 C   0  0  0  0  0  0  0  0  0  0  0  0
  1  2  2  0
  2  3  1  0
  3  4  1  0
  4  5  2  0
  5  6  1  0
  6  7  2  0
  7  8  1  0
  8  9  1  0
  8 10  2  0
  2 11  1  0
 11 12  1  0
 12 13  1  0
 13 14  1  0
 14 15  1  0
 15 16  1  0
 16 17  1  0
 17 18  2  0
 18 19  1  0
 19 20  2  0
 20 21  1  0
 21 22  1  0
 21 23  2  0
 15 24  1  0
 24 25  1  0
 10  4  1  0
 25 12  1  0
 23 17  1  0
M  END
>  <ChemBL_ID>  (897) 
CHEMBL136114

>  <Compound_Key>  (897) 
36

>  <Ki>  (897) 
50.26

>  <database>  (897) 
CHEMBL

>  <Assay_ChEMBL_ID>  (897) 
CHEMBL846104

>  <Document_ChEMBL_ID>  (897) 
CHEMBL1134305

$$$$

     RDKit          2D

 25 27  0  0  0  0  0  0  0  0999 V2000
    2.1054    0.2666    0.0000 O   0  0  0  0  0  0  0  0  0  0  0  0
    2.7270   -1.0985    0.0000 C   0  0  0  0  0  0  0  0  0  0  0  0
    4.2201   -1.2427    0.0000 C   0  0  0  0  0  0  0  0  0  0  0  0
    5.0915   -0.0218    0.0000 C   0  0  0  0  0  0  0  0  0  0  0  0
    6.5845   -0.1659    0.0000 C   0  0  0  0  0  0  0  0  0  0  0  0
    7.4559    1.0550    0.0000 C   0  0  0  0  0  0  0  0  0  0  0  0
    6.8342    2.4201    0.0000 C   0  0  0  0  0  0  0  0  0  0  0  0
    5.3412    2.5643    0.0000 C   0  0  0  0  0  0  0  0  0  0  0  0
    4.4698    1.3434    0.0000 C   0  0  0  0  0  0  0  0  0  0  0  0
    2.9767    1.4875    0.0000 F   0  0  0  0  0  0  0  0  0  0  0  0
    1.8557   -2.3195    0.0000 N   0  0  0  0  0  0  0  0  0  0  0  0
    0.3626   -2.1753    0.0000 C   0  0  0  0  0  0  0  0  0  0  0  0
   -0.2591   -0.8102    0.0000 C   0  0  0  0  0  0  0  0  0  0  0  0
   -1.7521   -0.6661    0.0000 C   0  0  0  0  0  0  0  0  0  0  0  0
   -2.6235   -1.8870    0.0000 N   0  0  0  0  0  0  0  0  0  0  0  0
   -4.1165   -1.7429    0.0000 C   0  0  0  0  0  0  0  0  0  0  0  0
   -4.7382   -0.3778    0.0000 C   0  0  0  0  0  0  0  0  0  0  0  0
   -3.8669    0.8432    0.0000 C   0  0  0  0  0  0  0  0  0  0  0  0
   -4.4886    2.2083    0.0000 C   0  0  0  0  0  0  0  0  0  0  0  0
   -5.9816    2.3524    0.0000 C   0  0  0  0  0  0  0  0  0  0  0  0
   -6.6033    3.7175    0.0000 I   0  0  0  0  0  0  0  0  0  0  0  0
   -6.8530    1.1315    0.0000 C   0  0  0  0  0  0  0  0  0  0  0  0
   -6.2313   -0.2336    0.0000 C   0  0  0  0  0  0  0  0  0  0  0  0
   -2.0018   -3.2521    0.0000 C   0  0  0  0  0  0  0  0  0  0  0  0
   -0.5087   -3.3963    0.0000 C   0  0  0  0  0  0  0  0  0  0  0  0
  1  2  2  0
  2  3  1  0
  3  4  1  0
  4  5  2  0
  5  6  1  0
  6  7  2  0
  7  8  1  0
  8  9  2  0
  9 10  1  0
  2 11  1  0
 11 12  1  0
 12 13  1  0
 13 14  1  0
 14 15  1  0
 15 16  1  0
 16 17  1  0
 17 18  2  0
 18 19  1  0
 19 20  2  0
 20 21  1  0
 20 22  1  0
 22 23  2  0
 15 24  1  0
 24 25  1  0
  9  4  1  0
 25 12  1  0
 23 17  1  0
M  END
>  <ChemBL_ID>  (898) 
CHEMBL343580

>  <Compound_Key>  (898) 
34

>  <Ki>  (898) 
232.53

>  <database>  (898) 
CHEMBL

>  <Assay_ChEMBL_ID>  (898) 
CHEMBL846104

>  <Document_ChEMBL_ID>  (898) 
CHEMBL1134305

$$$$

     RDKit          2D

 25 27  0  0  0  0  0  0  0  0999 V2000
    2.0401    0.1028    0.0000 O   0  0  0  0  0  0  0  0  0  0  0  0
    2.6172   -1.2817    0.0000 C   0  0  0  0  0  0  0  0  0  0  0  0
    4.1048   -1.4742    0.0000 C   0  0  0  0  0  0  0  0  0  0  0  0
    5.0153   -0.2821    0.0000 C   0  0  0  0  0  0  0  0  0  0  0  0
    6.5029   -0.4746    0.0000 C   0  0  0  0  0  0  0  0  0  0  0  0
    7.4133    0.7175    0.0000 C   0  0  0  0  0  0  0  0  0  0  0  0
    6.8362    2.1020    0.0000 C   0  0  0  0  0  0  0  0  0  0  0  0
    5.3486    2.2945    0.0000 C   0  0  0  0  0  0  0  0  0  0  0  0
    4.7715    3.6790    0.0000 Br  0  0  0  0  0  0  0  0  0  0  0  0
    4.4381    1.1024    0.0000 C   0  0  0  0  0  0  0  0  0  0  0  0
    1.7067   -2.4738    0.0000 N   0  0  0  0  0  0  0  0  0  0  0  0
    0.2191   -2.2813    0.0000 C   0  0  0  0  0  0  0  0  0  0  0  0
   -0.3580   -0.8968    0.0000 C   0  0  0  0  0  0  0  0  0  0  0  0
   -1.8456   -0.7043    0.0000 C   0  0  0  0  0  0  0  0  0  0  0  0
   -2.7561   -1.8964    0.0000 N   0  0  0  0  0  0  0  0  0  0  0  0
   -4.2437   -1.7039    0.0000 C   0  0  0  0  0  0  0  0  0  0  0  0
   -4.8208   -0.3194    0.0000 C   0  0  0  0  0  0  0  0  0  0  0  0
   -3.9104    0.8727    0.0000 C   0  0  0  0  0  0  0  0  0  0  0  0
   -4.4875    2.2572    0.0000 C   0  0  0  0  0  0  0  0  0  0  0  0
   -5.9751    2.4497    0.0000 C   0  0  0  0  0  0  0  0  0  0  0  0
   -6.5522    3.8342    0.0000 I   0  0  0  0  0  0  0  0  0  0  0  0
   -6.8856    1.2576    0.0000 C   0  0  0  0  0  0  0  0  0  0  0  0
   -6.3084   -0.1269    0.0000 C   0  0  0  0  0  0  0  0  0  0  0  0
   -2.1790   -3.2809    0.0000 C   0  0  0  0  0  0  0  0  0  0  0  0
   -0.6914   -3.4734    0.0000 C   0  0  0  0  0  0  0  0  0  0  0  0
  1  2  2  0
  2  3  1  0
  3  4  1  0
  4  5  2  0
  5  6  1  0
  6  7  2  0
  7  8  1  0
  8  9  1  0
  8 10  2  0
  2 11  1  0
 11 12  1  0
 12 13  1  0
 13 14  1  0
 14 15  1  0
 15 16  1  0
 16 17  1  0
 17 18  2  0
 18 19  1  0
 19 20  2  0
 20 21  1  0
 20 22  1  0
 22 23  2  0
 15 24  1  0
 24 25  1  0
 10  4  1  0
 25 12  1  0
 23 17  1  0
M  END
>  <ChemBL_ID>  (899) 
CHEMBL343752

>  <Compound_Key>  (899) 
43

>  <Ki>  (899) 
90.31

>  <database>  (899) 
CHEMBL

>  <Assay_ChEMBL_ID>  (899) 
CHEMBL846104

>  <Document_ChEMBL_ID>  (899) 
CHEMBL1134305

$$$$

     RDKit          2D

 22 24  0  0  0  0  0  0  0  0999 V2000
   -2.9640    0.9515    0.0000 O   0  0  0  0  0  0  0  0  0  0  0  0
   -3.0182   -0.5475    0.0000 C   0  0  0  0  0  0  0  0  0  0  0  0
   -4.3436   -1.2500    0.0000 C   0  0  0  0  0  0  0  0  0  0  0  0
   -5.6146   -0.4535    0.0000 C   0  0  0  0  0  0  0  0  0  0  0  0
   -7.0061   -1.0136    0.0000 C   0  0  0  0  0  0  0  0  0  0  0  0
   -7.9688    0.1367    0.0000 C   0  0  0  0  0  0  0  0  0  0  0  0
   -7.1723    1.4078    0.0000 C   0  0  0  0  0  0  0  0  0  0  0  0
   -5.7173    1.0430    0.0000 S   0  0  0  0  0  0  0  0  0  0  0  0
   -1.7472   -1.3440    0.0000 N   0  0  0  0  0  0  0  0  0  0  0  0
   -0.4219   -0.6415    0.0000 C   0  0  0  0  0  0  0  0  0  0  0  0
    0.8492   -1.4380    0.0000 C   0  0  0  0  0  0  0  0  0  0  0  0
    2.1745   -0.7355    0.0000 C   0  0  0  0  0  0  0  0  0  0  0  0
    2.2288    0.7635    0.0000 N   0  0  0  0  0  0  0  0  0  0  0  0
    3.5541    1.4660    0.0000 C   0  0  0  0  0  0  0  0  0  0  0  0
    4.8252    0.6695    0.0000 C   0  0  0  0  0  0  0  0  0  0  0  0
    4.7709   -0.8296    0.0000 C   0  0  0  0  0  0  0  0  0  0  0  0
    6.0419   -1.6261    0.0000 C   0  0  0  0  0  0  0  0  0  0  0  0
    7.3673   -0.9236    0.0000 C   0  0  0  0  0  0  0  0  0  0  0  0
    7.4215    0.5754    0.0000 C   0  0  0  0  0  0  0  0  0  0  0  0
    6.1505    1.3719    0.0000 C   0  0  0  0  0  0  0  0  0  0  0  0
    0.9577    1.5600    0.0000 C   0  0  0  0  0  0  0  0  0  0  0  0
   -0.3676    0.8575    0.0000 C   0  0  0  0  0  0  0  0  0  0  0  0
  1  2  2  0
  2  3  1  0
  3  4  1  0
  4  5  2  0
  5  6  1  0
  6  7  2  0
  7  8  1  0
  2  9  1  0
  9 10  1  0
 10 11  1  0
 11 12  1  0
 12 13  1  0
 13 14  1  0
 14 15  1  0
 15 16  2  0
 16 17  1  0
 17 18  2  0
 18 19  1  0
 19 20  2  0
 13 21  1  0
 21 22  1  0
  8  4  1  0
 22 10  1  0
 20 15  1  0
M  END
>  <ChemBL_ID>  (900) 
CHEMBL138688

>  <Compound_Key>  (900) 
1

>  <Ki>  (900) 
392.82

>  <database>  (900) 
CHEMBL

>  <Assay_ChEMBL_ID>  (900) 
CHEMBL846104

>  <Document_ChEMBL_ID>  (900) 
CHEMBL1134305

$$$$

     RDKit          2D

 25 27  0  0  0  0  0  0  0  0999 V2000
    2.5484    0.3547    0.0000 O   0  0  0  0  0  0  0  0  0  0  0  0
    3.2124   -0.9904    0.0000 C   0  0  0  0  0  0  0  0  0  0  0  0
    4.7092   -1.0879    0.0000 C   0  0  0  0  0  0  0  0  0  0  0  0
    5.5421    0.1597    0.0000 C   0  0  0  0  0  0  0  0  0  0  0  0
    7.0389    0.0622    0.0000 C   0  0  0  0  0  0  0  0  0  0  0  0
    7.8718    1.3097    0.0000 C   0  0  0  0  0  0  0  0  0  0  0  0
    7.2078    2.6547    0.0000 C   0  0  0  0  0  0  0  0  0  0  0  0
    5.7110    2.7522    0.0000 C   0  0  0  0  0  0  0  0  0  0  0  0
    4.8781    1.5047    0.0000 C   0  0  0  0  0  0  0  0  0  0  0  0
    2.3796   -2.2379    0.0000 N   0  0  0  0  0  0  0  0  0  0  0  0
    0.8827   -2.1404    0.0000 C   0  0  0  0  0  0  0  0  0  0  0  0
    0.2188   -0.7953    0.0000 C   0  0  0  0  0  0  0  0  0  0  0  0
   -1.2781   -0.6978    0.0000 C   0  0  0  0  0  0  0  0  0  0  0  0
   -2.1109   -1.9453    0.0000 N   0  0  0  0  0  0  0  0  0  0  0  0
   -3.6078   -1.8478    0.0000 C   0  0  0  0  0  0  0  0  0  0  0  0
   -4.2717   -0.5028    0.0000 C   0  0  0  0  0  0  0  0  0  0  0  0
   -3.4389    0.7447    0.0000 C   0  0  0  0  0  0  0  0  0  0  0  0
   -4.1028    2.0898    0.0000 C   0  0  0  0  0  0  0  0  0  0  0  0
   -5.5997    2.1873    0.0000 C   0  0  0  0  0  0  0  0  0  0  0  0
   -6.2636    3.5324    0.0000 Cl  0  0  0  0  0  0  0  0  0  0  0  0
   -6.4325    0.9398    0.0000 C   0  0  0  0  0  0  0  0  0  0  0  0
   -7.9293    1.0373    0.0000 Cl  0  0  0  0  0  0  0  0  0  0  0  0
   -5.7685   -0.4053    0.0000 C   0  0  0  0  0  0  0  0  0  0  0  0
   -1.4470   -3.2904    0.0000 C   0  0  0  0  0  0  0  0  0  0  0  0
    0.0499   -3.3879    0.0000 C   0  0  0  0  0  0  0  0  0  0  0  0
  1  2  2  0
  2  3  1  0
  3  4  1  0
  4  5  2  0
  5  6  1  0
  6  7  2  0
  7  8  1  0
  8  9  2  0
  2 10  1  0
 10 11  1  0
 11 12  1  0
 12 13  1  0
 13 14  1  0
 14 15  1  0
 15 16  1  0
 16 17  2  0
 17 18  1  0
 18 19  2  0
 19 20  1  0
 19 21  1  0
 21 22  1  0
 21 23  2  0
 14 24  1  0
 24 25  1  0
  9  4  1  0
 25 11  1  0
 23 16  1  0
M  END
>  <ChemBL_ID>  (901) 
CHEMBL139156

>  <Compound_Key>  (901) 
27

>  <Ki>  (901) 
423.17

>  <database>  (901) 
CHEMBL

>  <Assay_ChEMBL_ID>  (901) 
CHEMBL846104

>  <Document_ChEMBL_ID>  (901) 
CHEMBL1134305

$$$$

     RDKit          2D

 24 26  0  0  0  0  0  0  0  0999 V2000
    2.2813    0.3939    0.0000 O   0  0  0  0  0  0  0  0  0  0  0  0
    2.8113   -1.0093    0.0000 C   0  0  0  0  0  0  0  0  0  0  0  0
    4.2915   -1.2520    0.0000 C   0  0  0  0  0  0  0  0  0  0  0  0
    5.2418   -0.0913    0.0000 C   0  0  0  0  0  0  0  0  0  0  0  0
    6.7220   -0.3340    0.0000 C   0  0  0  0  0  0  0  0  0  0  0  0
    7.6723    0.8266    0.0000 C   0  0  0  0  0  0  0  0  0  0  0  0
    7.1423    2.2299    0.0000 C   0  0  0  0  0  0  0  0  0  0  0  0
    5.6620    2.4725    0.0000 C   0  0  0  0  0  0  0  0  0  0  0  0
    4.7118    1.3119    0.0000 C   0  0  0  0  0  0  0  0  0  0  0  0
    1.8610   -2.1699    0.0000 N   0  0  0  0  0  0  0  0  0  0  0  0
    0.3808   -1.9273    0.0000 C   0  0  0  0  0  0  0  0  0  0  0  0
   -0.1492   -0.5240    0.0000 C   0  0  0  0  0  0  0  0  0  0  0  0
   -1.6295   -0.2814    0.0000 C   0  0  0  0  0  0  0  0  0  0  0  0
   -2.5797   -1.4420    0.0000 N   0  0  0  0  0  0  0  0  0  0  0  0
   -4.0600   -1.1993    0.0000 C   0  0  0  0  0  0  0  0  0  0  0  0
   -4.5900    0.2039    0.0000 C   0  0  0  0  0  0  0  0  0  0  0  0
   -3.6397    1.3645    0.0000 C   0  0  0  0  0  0  0  0  0  0  0  0
   -4.1697    2.7678    0.0000 C   0  0  0  0  0  0  0  0  0  0  0  0
   -5.6499    3.0104    0.0000 C   0  0  0  0  0  0  0  0  0  0  0  0
   -6.6002    1.8498    0.0000 C   0  0  0  0  0  0  0  0  0  0  0  0
   -6.0702    0.4465    0.0000 C   0  0  0  0  0  0  0  0  0  0  0  0
   -7.0205   -0.7141    0.0000 F   0  0  0  0  0  0  0  0  0  0  0  0
   -2.0497   -2.8452    0.0000 C   0  0  0  0  0  0  0  0  0  0  0  0
   -0.5695   -3.0879    0.0000 C   0  0  0  0  0  0  0  0  0  0  0  0
  1  2  2  0
  2  3  1  0
  3  4  1  0
  4  5  2  0
  5  6  1  0
  6  7  2  0
  7  8  1  0
  8  9  2  0
  2 10  1  0
 10 11  1  0
 11 12  1  0
 12 13  1  0
 13 14  1  0
 14 15  1  0
 15 16  1  0
 16 17  2  0
 17 18  1  0
 18 19  2  0
 19 20  1  0
 20 21  2  0
 21 22  1  0
 14 23  1  0
 23 24  1  0
  9  4  1  0
 24 11  1  0
 21 16  1  0
M  END
>  <ChemBL_ID>  (902) 
CHEMBL345051

>  <Compound_Key>  (902) 
17

>  <Ki>  (902) 
682.7

>  <database>  (902) 
CHEMBL

>  <Assay_ChEMBL_ID>  (902) 
CHEMBL846104

>  <Document_ChEMBL_ID>  (902) 
CHEMBL1134305

$$$$

     RDKit          2D

 27 30  0  0  0  0  0  0  0  0999 V2000
   -2.7165    0.2007    0.0000 O   0  0  0  0  0  0  0  0  0  0  0  0
   -3.5159   -1.0686    0.0000 C   0  0  0  0  0  0  0  0  0  0  0  0
   -5.0147   -1.0110    0.0000 C   0  0  0  0  0  0  0  0  0  0  0  0
   -5.7143    0.3159    0.0000 C   0  0  0  0  0  0  0  0  0  0  0  0
   -4.9150    1.5852    0.0000 C   0  0  0  0  0  0  0  0  0  0  0  0
   -5.6145    2.9121    0.0000 C   0  0  0  0  0  0  0  0  0  0  0  0
   -7.1134    2.9697    0.0000 C   0  0  0  0  0  0  0  0  0  0  0  0
   -7.9128    1.7004    0.0000 C   0  0  0  0  0  0  0  0  0  0  0  0
   -7.2132    0.3735    0.0000 C   0  0  0  0  0  0  0  0  0  0  0  0
   -2.8163   -2.3955    0.0000 N   0  0  0  0  0  0  0  0  0  0  0  0
   -1.3174   -2.4531    0.0000 C   0  0  0  0  0  0  0  0  0  0  0  0
   -0.6178   -3.7800    0.0000 C   0  0  0  0  0  0  0  0  0  0  0  0
    0.8811   -3.8376    0.0000 C   0  0  0  0  0  0  0  0  0  0  0  0
    1.6804   -2.5683    0.0000 N   0  0  0  0  0  0  0  0  0  0  0  0
    3.1793   -2.6259    0.0000 C   0  0  0  0  0  0  0  0  0  0  0  0
    3.9786   -1.3566    0.0000 C   0  0  0  0  0  0  0  0  0  0  0  0
    5.4775   -1.4142    0.0000 C   0  0  0  0  0  0  0  0  0  0  0  0
    6.2768   -0.1449    0.0000 C   0  0  0  0  0  0  0  0  0  0  0  0
    5.5773    1.1820    0.0000 C   0  0  0  0  0  0  0  0  0  0  0  0
    6.3766    2.4512    0.0000 C   0  0  0  0  0  0  0  0  0  0  0  0
    5.6770    3.7781    0.0000 C   0  0  0  0  0  0  0  0  0  0  0  0
    4.1782    3.8357    0.0000 C   0  0  0  0  0  0  0  0  0  0  0  0
    3.3788    2.5664    0.0000 C   0  0  0  0  0  0  0  0  0  0  0  0
    4.0784    1.2396    0.0000 C   0  0  0  0  0  0  0  0  0  0  0  0
    3.2791   -0.0297    0.0000 C   0  0  0  0  0  0  0  0  0  0  0  0
    0.9808   -1.2414    0.0000 C   0  0  0  0  0  0  0  0  0  0  0  0
   -0.5181   -1.1838    0.0000 C   0  0  0  0  0  0  0  0  0  0  0  0
  1  2  2  0
  2  3  1  0
  3  4  1  0
  4  5  2  0
  5  6  1  0
  6  7  2  0
  7  8  1  0
  8  9  2  0
  2 10  1  0
 10 11  1  0
 11 12  1  0
 12 13  1  0
 13 14  1  0
 14 15  1  0
 15 16  1  0
 16 17  2  0
 17 18  1  0
 18 19  2  0
 19 20  1  0
 20 21  2  0
 21 22  1  0
 22 23  2  0
 23 24  1  0
 24 25  2  0
 14 26  1  0
 26 27  1  0
  9  4  1  0
 27 11  1  0
 25 16  1  0
 24 19  1  0
M  END
>  <ChemBL_ID>  (903) 
CHEMBL136677

>  <Compound_Key>  (903) 
30

>  <Ki>  (903) 
189.47

>  <database>  (903) 
CHEMBL

>  <Assay_ChEMBL_ID>  (903) 
CHEMBL846104

>  <Document_ChEMBL_ID>  (903) 
CHEMBL1134305

$$$$

     RDKit          2D

 25 27  0  0  0  0  0  0  0  0999 V2000
    2.0401    0.1028    0.0000 O   0  0  0  0  0  0  0  0  0  0  0  0
    2.6172   -1.2817    0.0000 C   0  0  0  0  0  0  0  0  0  0  0  0
    4.1048   -1.4742    0.0000 C   0  0  0  0  0  0  0  0  0  0  0  0
    5.0153   -0.2821    0.0000 C   0  0  0  0  0  0  0  0  0  0  0  0
    6.5029   -0.4746    0.0000 C   0  0  0  0  0  0  0  0  0  0  0  0
    7.4133    0.7175    0.0000 C   0  0  0  0  0  0  0  0  0  0  0  0
    6.8362    2.1020    0.0000 C   0  0  0  0  0  0  0  0  0  0  0  0
    5.3486    2.2945    0.0000 C   0  0  0  0  0  0  0  0  0  0  0  0
    4.7715    3.6790    0.0000 F   0  0  0  0  0  0  0  0  0  0  0  0
    4.4381    1.1024    0.0000 C   0  0  0  0  0  0  0  0  0  0  0  0
    1.7067   -2.4738    0.0000 N   0  0  0  0  0  0  0  0  0  0  0  0
    0.2191   -2.2813    0.0000 C   0  0  0  0  0  0  0  0  0  0  0  0
   -0.3580   -0.8968    0.0000 C   0  0  0  0  0  0  0  0  0  0  0  0
   -1.8456   -0.7043    0.0000 C   0  0  0  0  0  0  0  0  0  0  0  0
   -2.7561   -1.8964    0.0000 N   0  0  0  0  0  0  0  0  0  0  0  0
   -4.2437   -1.7039    0.0000 C   0  0  0  0  0  0  0  0  0  0  0  0
   -4.8208   -0.3194    0.0000 C   0  0  0  0  0  0  0  0  0  0  0  0
   -3.9104    0.8727    0.0000 C   0  0  0  0  0  0  0  0  0  0  0  0
   -4.4875    2.2572    0.0000 C   0  0  0  0  0  0  0  0  0  0  0  0
   -5.9751    2.4497    0.0000 C   0  0  0  0  0  0  0  0  0  0  0  0
   -6.5522    3.8342    0.0000 F   0  0  0  0  0  0  0  0  0  0  0  0
   -6.8856    1.2576    0.0000 C   0  0  0  0  0  0  0  0  0  0  0  0
   -6.3084   -0.1269    0.0000 C   0  0  0  0  0  0  0  0  0  0  0  0
   -2.1790   -3.2809    0.0000 C   0  0  0  0  0  0  0  0  0  0  0  0
   -0.6914   -3.4734    0.0000 C   0  0  0  0  0  0  0  0  0  0  0  0
  1  2  2  0
  2  3  1  0
  3  4  1  0
  4  5  2  0
  5  6  1  0
  6  7  2  0
  7  8  1  0
  8  9  1  0
  8 10  2  0
  2 11  1  0
 11 12  1  0
 12 13  1  0
 13 14  1  0
 14 15  1  0
 15 16  1  0
 16 17  1  0
 17 18  2  0
 18 19  1  0
 19 20  2  0
 20 21  1  0
 20 22  1  0
 22 23  2  0
 15 24  1  0
 24 25  1  0
 10  4  1  0
 25 12  1  0
 23 17  1  0
M  END
>  <ChemBL_ID>  (904) 
CHEMBL136451

>  <Compound_Key>  (904) 
35

>  <Ki>  (904) 
31.02

>  <database>  (904) 
CHEMBL

>  <Assay_ChEMBL_ID>  (904) 
CHEMBL846104

>  <Document_ChEMBL_ID>  (904) 
CHEMBL1134305

$$$$

     RDKit          2D

 25 27  0  0  0  0  0  0  0  0999 V2000
    2.0401    0.1028    0.0000 O   0  0  0  0  0  0  0  0  0  0  0  0
    2.6172   -1.2817    0.0000 C   0  0  0  0  0  0  0  0  0  0  0  0
    4.1048   -1.4742    0.0000 C   0  0  0  0  0  0  0  0  0  0  0  0
    5.0153   -0.2821    0.0000 C   0  0  0  0  0  0  0  0  0  0  0  0
    6.5029   -0.4746    0.0000 C   0  0  0  0  0  0  0  0  0  0  0  0
    7.4133    0.7175    0.0000 C   0  0  0  0  0  0  0  0  0  0  0  0
    6.8362    2.1020    0.0000 C   0  0  0  0  0  0  0  0  0  0  0  0
    5.3486    2.2945    0.0000 C   0  0  0  0  0  0  0  0  0  0  0  0
    4.7715    3.6790    0.0000 Br  0  0  0  0  0  0  0  0  0  0  0  0
    4.4381    1.1024    0.0000 C   0  0  0  0  0  0  0  0  0  0  0  0
    1.7067   -2.4738    0.0000 N   0  0  0  0  0  0  0  0  0  0  0  0
    0.2191   -2.2813    0.0000 C   0  0  0  0  0  0  0  0  0  0  0  0
   -0.3580   -0.8968    0.0000 C   0  0  0  0  0  0  0  0  0  0  0  0
   -1.8456   -0.7043    0.0000 C   0  0  0  0  0  0  0  0  0  0  0  0
   -2.7561   -1.8964    0.0000 N   0  0  0  0  0  0  0  0  0  0  0  0
   -4.2437   -1.7039    0.0000 C   0  0  0  0  0  0  0  0  0  0  0  0
   -4.8208   -0.3194    0.0000 C   0  0  0  0  0  0  0  0  0  0  0  0
   -3.9104    0.8727    0.0000 C   0  0  0  0  0  0  0  0  0  0  0  0
   -4.4875    2.2572    0.0000 C   0  0  0  0  0  0  0  0  0  0  0  0
   -5.9751    2.4497    0.0000 C   0  0  0  0  0  0  0  0  0  0  0  0
   -6.5522    3.8342    0.0000 F   0  0  0  0  0  0  0  0  0  0  0  0
   -6.8856    1.2576    0.0000 C   0  0  0  0  0  0  0  0  0  0  0  0
   -6.3084   -0.1269    0.0000 C   0  0  0  0  0  0  0  0  0  0  0  0
   -2.1790   -3.2809    0.0000 C   0  0  0  0  0  0  0  0  0  0  0  0
   -0.6914   -3.4734    0.0000 C   0  0  0  0  0  0  0  0  0  0  0  0
  1  2  2  0
  2  3  1  0
  3  4  1  0
  4  5  2  0
  5  6  1  0
  6  7  2  0
  7  8  1  0
  8  9  1  0
  8 10  2  0
  2 11  1  0
 11 12  1  0
 12 13  1  0
 13 14  1  0
 14 15  1  0
 15 16  1  0
 16 17  1  0
 17 18  2  0
 18 19  1  0
 19 20  2  0
 20 21  1  0
 20 22  1  0
 22 23  2  0
 15 24  1  0
 24 25  1  0
 10  4  1  0
 25 12  1  0
 23 17  1  0
M  END
>  <ChemBL_ID>  (905) 
CHEMBL334568

>  <Compound_Key>  (905) 
41

>  <Ki>  (905) 
6.06

>  <database>  (905) 
CHEMBL

>  <Assay_ChEMBL_ID>  (905) 
CHEMBL846104

>  <Document_ChEMBL_ID>  (905) 
CHEMBL1134305

$$$$

     RDKit          2D

 29 32  0  0  0  0  0  0  0  0999 V2000
   -9.1428   -2.9738    0.0000 C   0  0  0  0  0  0  0  0  0  0  0  0
   -7.6462   -2.8725    0.0000 O   0  0  0  0  0  0  0  0  0  0  0  0
   -6.9857   -1.5257    0.0000 C   0  0  0  0  0  0  0  0  0  0  0  0
   -7.8218   -0.2803    0.0000 C   0  0  0  0  0  0  0  0  0  0  0  0
   -7.1613    1.0664    0.0000 C   0  0  0  0  0  0  0  0  0  0  0  0
   -5.6647    1.1678    0.0000 C   0  0  0  0  0  0  0  0  0  0  0  0
   -4.8287   -0.0776    0.0000 C   0  0  0  0  0  0  0  0  0  0  0  0
   -5.4892   -1.4243    0.0000 C   0  0  0  0  0  0  0  0  0  0  0  0
   -3.3859    0.3327    0.0000 C   0  0  0  0  0  0  0  0  0  0  0  0
   -2.2059   -0.5933    0.0000 C   0  0  0  0  0  0  0  0  0  0  0  0
   -0.8139   -0.0345    0.0000 C   0  0  0  0  0  0  0  0  0  0  0  0
   -0.6019    1.4505    0.0000 O   0  0  0  0  0  0  0  0  0  0  0  0
    0.3661   -0.9605    0.0000 N   0  0  0  0  0  0  0  0  0  0  0  0
    1.7581   -0.4017    0.0000 C   0  0  0  0  0  0  0  0  0  0  0  0
    2.9381   -1.3277    0.0000 C   0  0  0  0  0  0  0  0  0  0  0  0
    4.3301   -0.7689    0.0000 C   0  0  0  0  0  0  0  0  0  0  0  0
    4.5421    0.7161    0.0000 N   0  0  0  0  0  0  0  0  0  0  0  0
    5.9341    1.2750    0.0000 C   0  0  0  0  0  0  0  0  0  0  0  0
    7.1141    0.3489    0.0000 C   0  0  0  0  0  0  0  0  0  0  0  0
    6.9021   -1.1361    0.0000 C   0  0  0  0  0  0  0  0  0  0  0  0
    8.0821   -2.0621    0.0000 C   0  0  0  0  0  0  0  0  0  0  0  0
    9.4741   -1.5033    0.0000 C   0  0  0  0  0  0  0  0  0  0  0  0
    9.6861   -0.0183    0.0000 C   0  0  0  0  0  0  0  0  0  0  0  0
    8.5061    0.9078    0.0000 C   0  0  0  0  0  0  0  0  0  0  0  0
    3.3621    1.6421    0.0000 C   0  0  0  0  0  0  0  0  0  0  0  0
    1.9701    1.0833    0.0000 C   0  0  0  0  0  0  0  0  0  0  0  0
   -3.3302    1.8317    0.0000 C   0  0  0  0  0  0  0  0  0  0  0  0
   -4.7387    2.3478    0.0000 C   0  0  0  0  0  0  0  0  0  0  0  0
   -5.1490    3.7906    0.0000 O   0  0  0  0  0  0  0  0  0  0  0  0
  1  2  1  0
  2  3  1  0
  3  4  2  0
  4  5  1  0
  5  6  2  0
  6  7  1  0
  7  8  2  0
  7  9  1  0
  9 10  1  0
 10 11  1  0
 11 12  2  0
 11 13  1  0
 13 14  1  0
 14 15  1  0
 15 16  1  0
 16 17  1  0
 17 18  1  0
 18 19  1  0
 19 20  2  0
 20 21  1  0
 21 22  2  0
 22 23  1  0
 23 24  2  0
 17 25  1  0
 25 26  1  0
  9 27  1  0
 27 28  1  0
 28 29  2  0
  8  3  1  0
 26 14  1  0
 28  6  1  0
 24 19  1  0
M  END
>  <ChemBL_ID>  (906) 
CHEMBL138932

>  <Compound_Key>  (906) 
13

>  <Ki>  (906) 
416.41

>  <database>  (906) 
CHEMBL

>  <Assay_ChEMBL_ID>  (906) 
CHEMBL846104

>  <Document_ChEMBL_ID>  (906) 
CHEMBL1134305

$$$$

     RDKit          2D

 27 30  0  0  0  0  0  0  0  0999 V2000
    0.9645   -0.4395    0.0000 O   0  0  0  0  0  0  0  0  0  0  0  0
    1.2432   -1.9134    0.0000 C   0  0  0  0  0  0  0  0  0  0  0  0
    2.6590   -2.4090    0.0000 C   0  0  0  0  0  0  0  0  0  0  0  0
    3.7961   -1.4307    0.0000 C   0  0  0  0  0  0  0  0  0  0  0  0
    5.2118   -1.9262    0.0000 C   0  0  0  0  0  0  0  0  0  0  0  0
    6.3489   -0.9479    0.0000 C   0  0  0  0  0  0  0  0  0  0  0  0
    6.0702    0.5260    0.0000 C   0  0  0  0  0  0  0  0  0  0  0  0
    7.2072    1.5043    0.0000 C   0  0  0  0  0  0  0  0  0  0  0  0
    6.9285    2.9782    0.0000 C   0  0  0  0  0  0  0  0  0  0  0  0
    5.5127    3.4737    0.0000 C   0  0  0  0  0  0  0  0  0  0  0  0
    4.3757    2.4954    0.0000 C   0  0  0  0  0  0  0  0  0  0  0  0
    4.6544    1.0215    0.0000 C   0  0  0  0  0  0  0  0  0  0  0  0
    3.5173    0.0432    0.0000 C   0  0  0  0  0  0  0  0  0  0  0  0
    0.1062   -2.8917    0.0000 N   0  0  0  0  0  0  0  0  0  0  0  0
   -1.3096   -2.3962    0.0000 C   0  0  0  0  0  0  0  0  0  0  0  0
   -1.5883   -0.9223    0.0000 C   0  0  0  0  0  0  0  0  0  0  0  0
   -3.0041   -0.4268    0.0000 C   0  0  0  0  0  0  0  0  0  0  0  0
   -4.1412   -1.4051    0.0000 N   0  0  0  0  0  0  0  0  0  0  0  0
   -5.5569   -0.9095    0.0000 C   0  0  0  0  0  0  0  0  0  0  0  0
   -5.8357    0.5644    0.0000 C   0  0  0  0  0  0  0  0  0  0  0  0
   -4.6986    1.5427    0.0000 C   0  0  0  0  0  0  0  0  0  0  0  0
   -4.9773    3.0166    0.0000 C   0  0  0  0  0  0  0  0  0  0  0  0
   -6.3931    3.5121    0.0000 C   0  0  0  0  0  0  0  0  0  0  0  0
   -7.5302    2.5338    0.0000 C   0  0  0  0  0  0  0  0  0  0  0  0
   -7.2514    1.0599    0.0000 C   0  0  0  0  0  0  0  0  0  0  0  0
   -3.8624   -2.8790    0.0000 C   0  0  0  0  0  0  0  0  0  0  0  0
   -2.4467   -3.3745    0.0000 C   0  0  0  0  0  0  0  0  0  0  0  0
  1  2  2  0
  2  3  1  0
  3  4  1  0
  4  5  2  0
  5  6  1  0
  6  7  2  0
  7  8  1  0
  8  9  2  0
  9 10  1  0
 10 11  2  0
 11 12  1  0
 12 13  2  0
  2 14  1  0
 14 15  1  0
 15 16  1  0
 16 17  1  0
 17 18  1  0
 18 19  1  0
 19 20  1  0
 20 21  2  0
 21 22  1  0
 22 23  2  0
 23 24  1  0
 24 25  2  0
 18 26  1  0
 26 27  1  0
 13  4  1  0
 27 15  1  0
 12  7  1  0
 25 20  1  0
M  END
>  <ChemBL_ID>  (907) 
CHEMBL134856

>  <Compound_Key>  (907) 
9

>  <Ki>  (907) 
111.57

>  <database>  (907) 
CHEMBL

>  <Assay_ChEMBL_ID>  (907) 
CHEMBL846104

>  <Document_ChEMBL_ID>  (907) 
CHEMBL1134305

$$$$

     RDKit          2D

 24 26  0  0  0  0  0  0  0  0999 V2000
    2.7967    0.5401    0.0000 O   0  0  0  0  0  0  0  0  0  0  0  0
    3.3040   -0.8716    0.0000 C   0  0  0  0  0  0  0  0  0  0  0  0
    4.7801   -1.1381    0.0000 C   0  0  0  0  0  0  0  0  0  0  0  0
    5.7490    0.0070    0.0000 C   0  0  0  0  0  0  0  0  0  0  0  0
    7.2251   -0.2595    0.0000 C   0  0  0  0  0  0  0  0  0  0  0  0
    8.1940    0.8856    0.0000 C   0  0  0  0  0  0  0  0  0  0  0  0
    7.6868    2.2972    0.0000 C   0  0  0  0  0  0  0  0  0  0  0  0
    6.2106    2.5637    0.0000 C   0  0  0  0  0  0  0  0  0  0  0  0
    5.2417    1.4186    0.0000 C   0  0  0  0  0  0  0  0  0  0  0  0
    2.3351   -2.0167    0.0000 N   0  0  0  0  0  0  0  0  0  0  0  0
    0.8589   -1.7501    0.0000 C   0  0  0  0  0  0  0  0  0  0  0  0
    0.3517   -0.3385    0.0000 C   0  0  0  0  0  0  0  0  0  0  0  0
   -1.1244   -0.0720    0.0000 C   0  0  0  0  0  0  0  0  0  0  0  0
   -2.0933   -1.2171    0.0000 N   0  0  0  0  0  0  0  0  0  0  0  0
   -3.5695   -0.9506    0.0000 C   0  0  0  0  0  0  0  0  0  0  0  0
   -4.0767    0.4611    0.0000 C   0  0  0  0  0  0  0  0  0  0  0  0
   -5.5528    0.7276    0.0000 C   0  0  0  0  0  0  0  0  0  0  0  0
   -6.0601    2.1392    0.0000 C   0  0  0  0  0  0  0  0  0  0  0  0
   -7.5362    2.4058    0.0000 C   0  0  0  0  0  0  0  0  0  0  0  0
   -8.5051    1.2607    0.0000 C   0  0  0  0  0  0  0  0  0  0  0  0
   -7.9978   -0.1510    0.0000 C   0  0  0  0  0  0  0  0  0  0  0  0
   -6.5217   -0.4175    0.0000 C   0  0  0  0  0  0  0  0  0  0  0  0
   -1.5861   -2.6287    0.0000 C   0  0  0  0  0  0  0  0  0  0  0  0
   -0.1099   -2.8952    0.0000 C   0  0  0  0  0  0  0  0  0  0  0  0
  1  2  2  0
  2  3  1  0
  3  4  1  0
  4  5  2  0
  5  6  1  0
  6  7  2  0
  7  8  1  0
  8  9  2  0
  2 10  1  0
 10 11  1  0
 11 12  1  0
 12 13  1  0
 13 14  1  0
 14 15  1  0
 15 16  1  0
 16 17  1  0
 17 18  2  0
 18 19  1  0
 19 20  2  0
 20 21  1  0
 21 22  2  0
 14 23  1  0
 23 24  1  0
  9  4  1  0
 24 11  1  0
 22 17  1  0
M  END
>  <ChemBL_ID>  (908) 
CHEMBL136275

>  <Compound_Key>  (908) 
31

>  <Ki>  (908) 
106.87

>  <database>  (908) 
CHEMBL

>  <Assay_ChEMBL_ID>  (908) 
CHEMBL846104

>  <Document_ChEMBL_ID>  (908) 
CHEMBL1134305

$$$$

     RDKit          2D

 25 27  0  0  0  0  0  0  0  0999 V2000
    2.1175    0.1407    0.0000 O   0  0  0  0  0  0  0  0  0  0  0  0
    2.6568   -1.2590    0.0000 C   0  0  0  0  0  0  0  0  0  0  0  0
    4.1386   -1.4919    0.0000 C   0  0  0  0  0  0  0  0  0  0  0  0
    5.0811   -0.3250    0.0000 C   0  0  0  0  0  0  0  0  0  0  0  0
    6.5630   -0.5579    0.0000 C   0  0  0  0  0  0  0  0  0  0  0  0
    7.5055    0.6090    0.0000 C   0  0  0  0  0  0  0  0  0  0  0  0
    6.9662    2.0087    0.0000 C   0  0  0  0  0  0  0  0  0  0  0  0
    5.4844    2.2416    0.0000 C   0  0  0  0  0  0  0  0  0  0  0  0
    4.9452    3.6413    0.0000 Cl  0  0  0  0  0  0  0  0  0  0  0  0
    4.5419    1.0747    0.0000 C   0  0  0  0  0  0  0  0  0  0  0  0
    1.7142   -2.4259    0.0000 N   0  0  0  0  0  0  0  0  0  0  0  0
    0.2324   -2.1931    0.0000 C   0  0  0  0  0  0  0  0  0  0  0  0
   -0.3069   -0.7934    0.0000 C   0  0  0  0  0  0  0  0  0  0  0  0
   -1.7887   -0.5605    0.0000 C   0  0  0  0  0  0  0  0  0  0  0  0
   -2.7312   -1.7274    0.0000 N   0  0  0  0  0  0  0  0  0  0  0  0
   -4.2131   -1.4946    0.0000 C   0  0  0  0  0  0  0  0  0  0  0  0
   -4.7523   -0.0948    0.0000 C   0  0  0  0  0  0  0  0  0  0  0  0
   -3.8098    1.0720    0.0000 C   0  0  0  0  0  0  0  0  0  0  0  0
   -4.3490    2.4717    0.0000 C   0  0  0  0  0  0  0  0  0  0  0  0
   -5.8309    2.7046    0.0000 C   0  0  0  0  0  0  0  0  0  0  0  0
   -6.7734    1.5377    0.0000 C   0  0  0  0  0  0  0  0  0  0  0  0
   -8.2552    1.7705    0.0000 I   0  0  0  0  0  0  0  0  0  0  0  0
   -6.2341    0.1380    0.0000 C   0  0  0  0  0  0  0  0  0  0  0  0
   -2.1920   -3.1271    0.0000 C   0  0  0  0  0  0  0  0  0  0  0  0
   -0.7102   -3.3600    0.0000 C   0  0  0  0  0  0  0  0  0  0  0  0
  1  2  2  0
  2  3  1  0
  3  4  1  0
  4  5  2  0
  5  6  1  0
  6  7  2  0
  7  8  1  0
  8  9  1  0
  8 10  2  0
  2 11  1  0
 11 12  1  0
 12 13  1  0
 13 14  1  0
 14 15  1  0
 15 16  1  0
 16 17  1  0
 17 18  2  0
 18 19  1  0
 19 20  2  0
 20 21  1  0
 21 22  1  0
 21 23  2  0
 15 24  1  0
 24 25  1  0
 10  4  1  0
 25 12  1  0
 23 17  1  0
M  END
>  <ChemBL_ID>  (909) 
CHEMBL138794

>  <Compound_Key>  (909) 
39

>  <Ki>  (909) 
30.34

>  <database>  (909) 
CHEMBL

>  <Assay_ChEMBL_ID>  (909) 
CHEMBL846104

>  <Document_ChEMBL_ID>  (909) 
CHEMBL1134305

$$$$

     RDKit          2D

 25 27  0  0  0  0  0  0  0  0999 V2000
    2.0401    0.1028    0.0000 O   0  0  0  0  0  0  0  0  0  0  0  0
    2.6172   -1.2817    0.0000 C   0  0  0  0  0  0  0  0  0  0  0  0
    4.1048   -1.4742    0.0000 C   0  0  0  0  0  0  0  0  0  0  0  0
    5.0153   -0.2821    0.0000 C   0  0  0  0  0  0  0  0  0  0  0  0
    6.5029   -0.4746    0.0000 C   0  0  0  0  0  0  0  0  0  0  0  0
    7.4133    0.7175    0.0000 C   0  0  0  0  0  0  0  0  0  0  0  0
    6.8362    2.1020    0.0000 C   0  0  0  0  0  0  0  0  0  0  0  0
    5.3486    2.2945    0.0000 C   0  0  0  0  0  0  0  0  0  0  0  0
    4.7715    3.6790    0.0000 Cl  0  0  0  0  0  0  0  0  0  0  0  0
    4.4381    1.1024    0.0000 C   0  0  0  0  0  0  0  0  0  0  0  0
    1.7067   -2.4738    0.0000 N   0  0  0  0  0  0  0  0  0  0  0  0
    0.2191   -2.2813    0.0000 C   0  0  0  0  0  0  0  0  0  0  0  0
   -0.3580   -0.8968    0.0000 C   0  0  0  0  0  0  0  0  0  0  0  0
   -1.8456   -0.7043    0.0000 C   0  0  0  0  0  0  0  0  0  0  0  0
   -2.7561   -1.8964    0.0000 N   0  0  0  0  0  0  0  0  0  0  0  0
   -4.2437   -1.7039    0.0000 C   0  0  0  0  0  0  0  0  0  0  0  0
   -4.8208   -0.3194    0.0000 C   0  0  0  0  0  0  0  0  0  0  0  0
   -3.9104    0.8727    0.0000 C   0  0  0  0  0  0  0  0  0  0  0  0
   -4.4875    2.2572    0.0000 C   0  0  0  0  0  0  0  0  0  0  0  0
   -5.9751    2.4497    0.0000 C   0  0  0  0  0  0  0  0  0  0  0  0
   -6.5522    3.8342    0.0000 I   0  0  0  0  0  0  0  0  0  0  0  0
   -6.8856    1.2576    0.0000 C   0  0  0  0  0  0  0  0  0  0  0  0
   -6.3084   -0.1269    0.0000 C   0  0  0  0  0  0  0  0  0  0  0  0
   -2.1790   -3.2809    0.0000 C   0  0  0  0  0  0  0  0  0  0  0  0
   -0.6914   -3.4734    0.0000 C   0  0  0  0  0  0  0  0  0  0  0  0
  1  2  2  0
  2  3  1  0
  3  4  1  0
  4  5  2  0
  5  6  1  0
  6  7  2  0
  7  8  1  0
  8  9  1  0
  8 10  2  0
  2 11  1  0
 11 12  1  0
 12 13  1  0
 13 14  1  0
 14 15  1  0
 15 16  1  0
 16 17  1  0
 17 18  2  0
 18 19  1  0
 19 20  2  0
 20 21  1  0
 20 22  1  0
 22 23  2  0
 15 24  1  0
 24 25  1  0
 10  4  1  0
 25 12  1  0
 23 17  1  0
M  END
>  <ChemBL_ID>  (910) 
CHEMBL134855

>  <Compound_Key>  (910) 
40

>  <Ki>  (910) 
256.62

>  <database>  (910) 
CHEMBL

>  <Assay_ChEMBL_ID>  (910) 
CHEMBL846104

>  <Document_ChEMBL_ID>  (910) 
CHEMBL1134305

$$$$

     RDKit          2D

 26 29  0  0  0  0  0  0  0  0999 V2000
    2.5403   -0.2323    0.0000 O   0  0  0  0  0  0  0  0  0  0  0  0
    3.2806    1.0722    0.0000 C   0  0  0  0  0  0  0  0  0  0  0  0
    4.7806    1.0833    0.0000 C   0  0  0  0  0  0  0  0  0  0  0  0
    5.5402   -0.2101    0.0000 C   0  0  0  0  0  0  0  0  0  0  0  0
    4.7998   -1.5147    0.0000 C   0  0  0  0  0  0  0  0  0  0  0  0
    5.5594   -2.8081    0.0000 C   0  0  0  0  0  0  0  0  0  0  0  0
    7.0594   -2.7970    0.0000 C   0  0  0  0  0  0  0  0  0  0  0  0
    7.7997   -1.4925    0.0000 C   0  0  0  0  0  0  0  0  0  0  0  0
    7.0401   -0.1990    0.0000 C   0  0  0  0  0  0  0  0  0  0  0  0
    2.5210    2.3657    0.0000 N   0  0  0  0  0  0  0  0  0  0  0  0
    1.0210    2.3546    0.0000 C   0  0  0  0  0  0  0  0  0  0  0  0
    0.2614    3.6480    0.0000 C   0  0  0  0  0  0  0  0  0  0  0  0
   -1.2385    3.6369    0.0000 C   0  0  0  0  0  0  0  0  0  0  0  0
   -1.9789    2.3323    0.0000 N   0  0  0  0  0  0  0  0  0  0  0  0
   -3.4788    2.3212    0.0000 C   0  0  0  0  0  0  0  0  0  0  0  0
   -4.2192    1.0167    0.0000 C   0  0  0  0  0  0  0  0  0  0  0  0
   -5.7191    1.0056    0.0000 C   0  0  0  0  0  0  0  0  0  0  0  0
   -6.4595   -0.2990    0.0000 C   0  0  0  0  0  0  0  0  0  0  0  0
   -5.6999   -1.5925    0.0000 C   0  0  0  0  0  0  0  0  0  0  0  0
   -4.1999   -1.5813    0.0000 C   0  0  0  0  0  0  0  0  0  0  0  0
   -3.4596   -0.2768    0.0000 C   0  0  0  0  0  0  0  0  0  0  0  0
   -3.7259   -3.0045    0.0000 O   0  0  0  0  0  0  0  0  0  0  0  0
   -4.9328   -3.8951    0.0000 C   0  0  0  0  0  0  0  0  0  0  0  0
   -6.1528   -3.0224    0.0000 O   0  0  0  0  0  0  0  0  0  0  0  0
   -1.2193    1.0389    0.0000 C   0  0  0  0  0  0  0  0  0  0  0  0
    0.2807    1.0500    0.0000 C   0  0  0  0  0  0  0  0  0  0  0  0
  1  2  2  0
  2  3  1  0
  3  4  1  0
  4  5  2  0
  5  6  1  0
  6  7  2  0
  7  8  1  0
  8  9  2  0
  2 10  1  0
 10 11  1  0
 11 12  1  0
 12 13  1  0
 13 14  1  0
 14 15  1  0
 15 16  1  0
 16 17  2  0
 17 18  1  0
 18 19  2  0
 19 20  1  0
 20 21  2  0
 20 22  1  0
 22 23  1  0
 23 24  1  0
 14 25  1  0
 25 26  1  0
  9  4  1  0
 26 11  1  0
 21 16  1  0
 24 19  1  0
M  END
>  <ChemBL_ID>  (911) 
CHEMBL335953

>  <Compound_Key>  (911) 
29

>  <Ki>  (911) 
171.4

>  <database>  (911) 
CHEMBL

>  <Assay_ChEMBL_ID>  (911) 
CHEMBL846104

>  <Document_ChEMBL_ID>  (911) 
CHEMBL1134305

$$$$

     RDKit          2D

 24 26  0  0  0  0  0  0  0  0999 V2000
    2.3097    0.3868    0.0000 O   0  0  0  0  0  0  0  0  0  0  0  0
    2.9055   -0.9898    0.0000 C   0  0  0  0  0  0  0  0  0  0  0  0
    4.3956   -1.1622    0.0000 C   0  0  0  0  0  0  0  0  0  0  0  0
    5.2899    0.0421    0.0000 C   0  0  0  0  0  0  0  0  0  0  0  0
    6.7799   -0.1302    0.0000 C   0  0  0  0  0  0  0  0  0  0  0  0
    7.6742    1.0741    0.0000 C   0  0  0  0  0  0  0  0  0  0  0  0
    7.0784    2.4507    0.0000 C   0  0  0  0  0  0  0  0  0  0  0  0
    5.5883    2.6230    0.0000 C   0  0  0  0  0  0  0  0  0  0  0  0
    4.6940    1.4187    0.0000 C   0  0  0  0  0  0  0  0  0  0  0  0
    2.0113   -2.1941    0.0000 N   0  0  0  0  0  0  0  0  0  0  0  0
    0.5212   -2.0218    0.0000 C   0  0  0  0  0  0  0  0  0  0  0  0
   -0.0746   -0.6452    0.0000 C   0  0  0  0  0  0  0  0  0  0  0  0
   -1.5647   -0.4729    0.0000 C   0  0  0  0  0  0  0  0  0  0  0  0
   -2.4589   -1.6772    0.0000 N   0  0  0  0  0  0  0  0  0  0  0  0
   -3.9490   -1.5049    0.0000 C   0  0  0  0  0  0  0  0  0  0  0  0
   -4.5448   -0.1283    0.0000 C   0  0  0  0  0  0  0  0  0  0  0  0
   -3.6506    1.0760    0.0000 C   0  0  0  0  0  0  0  0  0  0  0  0
   -4.2464    2.4526    0.0000 C   0  0  0  0  0  0  0  0  0  0  0  0
   -5.7364    2.6249    0.0000 C   0  0  0  0  0  0  0  0  0  0  0  0
   -6.6307    1.4206    0.0000 C   0  0  0  0  0  0  0  0  0  0  0  0
   -8.1208    1.5929    0.0000 I   0  0  0  0  0  0  0  0  0  0  0  0
   -6.0349    0.0440    0.0000 C   0  0  0  0  0  0  0  0  0  0  0  0
   -1.8631   -3.0538    0.0000 C   0  0  0  0  0  0  0  0  0  0  0  0
   -0.3731   -3.2261    0.0000 C   0  0  0  0  0  0  0  0  0  0  0  0
  1  2  2  0
  2  3  1  0
  3  4  1  0
  4  5  2  0
  5  6  1  0
  6  7  2  0
  7  8  1  0
  8  9  2  0
  2 10  1  0
 10 11  1  0
 11 12  1  0
 12 13  1  0
 13 14  1  0
 14 15  1  0
 15 16  1  0
 16 17  2  0
 17 18  1  0
 18 19  2  0
 19 20  1  0
 20 21  1  0
 20 22  2  0
 14 23  1  0
 23 24  1  0
  9  4  1  0
 24 11  1  0
 22 16  1  0
M  END
>  <ChemBL_ID>  (912) 
CHEMBL137675

>  <Compound_Key>  (912) 
21

>  <Ki>  (912) 
191.05

>  <database>  (912) 
CHEMBL

>  <Assay_ChEMBL_ID>  (912) 
CHEMBL846104

>  <Document_ChEMBL_ID>  (912) 
CHEMBL1134305

$$$$

     RDKit          2D

 24 26  0  0  0  0  0  0  0  0999 V2000
    2.2813    0.3939    0.0000 O   0  0  0  0  0  0  0  0  0  0  0  0
    2.8113   -1.0093    0.0000 C   0  0  0  0  0  0  0  0  0  0  0  0
    4.2915   -1.2520    0.0000 C   0  0  0  0  0  0  0  0  0  0  0  0
    5.2418   -0.0913    0.0000 C   0  0  0  0  0  0  0  0  0  0  0  0
    6.7220   -0.3340    0.0000 C   0  0  0  0  0  0  0  0  0  0  0  0
    7.6723    0.8266    0.0000 C   0  0  0  0  0  0  0  0  0  0  0  0
    7.1423    2.2299    0.0000 C   0  0  0  0  0  0  0  0  0  0  0  0
    5.6620    2.4725    0.0000 C   0  0  0  0  0  0  0  0  0  0  0  0
    4.7118    1.3119    0.0000 C   0  0  0  0  0  0  0  0  0  0  0  0
    1.8610   -2.1699    0.0000 N   0  0  0  0  0  0  0  0  0  0  0  0
    0.3808   -1.9273    0.0000 C   0  0  0  0  0  0  0  0  0  0  0  0
   -0.1492   -0.5240    0.0000 C   0  0  0  0  0  0  0  0  0  0  0  0
   -1.6295   -0.2814    0.0000 C   0  0  0  0  0  0  0  0  0  0  0  0
   -2.5797   -1.4420    0.0000 N   0  0  0  0  0  0  0  0  0  0  0  0
   -4.0600   -1.1993    0.0000 C   0  0  0  0  0  0  0  0  0  0  0  0
   -4.5900    0.2039    0.0000 C   0  0  0  0  0  0  0  0  0  0  0  0
   -3.6397    1.3645    0.0000 C   0  0  0  0  0  0  0  0  0  0  0  0
   -4.1697    2.7678    0.0000 C   0  0  0  0  0  0  0  0  0  0  0  0
   -5.6499    3.0104    0.0000 C   0  0  0  0  0  0  0  0  0  0  0  0
   -6.6002    1.8498    0.0000 C   0  0  0  0  0  0  0  0  0  0  0  0
   -6.0702    0.4465    0.0000 C   0  0  0  0  0  0  0  0  0  0  0  0
   -7.0205   -0.7141    0.0000 I   0  0  0  0  0  0  0  0  0  0  0  0
   -2.0497   -2.8452    0.0000 C   0  0  0  0  0  0  0  0  0  0  0  0
   -0.5695   -3.0879    0.0000 C   0  0  0  0  0  0  0  0  0  0  0  0
  1  2  2  0
  2  3  1  0
  3  4  1  0
  4  5  2  0
  5  6  1  0
  6  7  2  0
  7  8  1  0
  8  9  2  0
  2 10  1  0
 10 11  1  0
 11 12  1  0
 12 13  1  0
 13 14  1  0
 14 15  1  0
 15 16  1  0
 16 17  2  0
 17 18  1  0
 18 19  2  0
 19 20  1  0
 20 21  2  0
 21 22  1  0
 14 23  1  0
 23 24  1  0
  9  4  1  0
 24 11  1  0
 21 16  1  0
M  END
>  <ChemBL_ID>  (913) 
CHEMBL343927

>  <Compound_Key>  (913) 
20

>  <Ki>  (913) 
631.0

>  <database>  (913) 
CHEMBL

>  <Assay_ChEMBL_ID>  (913) 
CHEMBL846104

>  <Document_ChEMBL_ID>  (913) 
CHEMBL1134305

$$$$

     RDKit          2D

 21 22  0  0  0  0  0  0  0  0999 V2000
    7.0645   -0.1242    0.0000 C   0  0  0  0  0  0  0  0  0  0  0  0
    5.7784   -0.8961    0.0000 C   0  0  0  0  0  0  0  0  0  0  0  0
    4.4668   -0.1683    0.0000 N   0  0  0  0  0  0  0  0  0  0  0  0
    4.4414    1.3315    0.0000 C   0  0  0  0  0  0  0  0  0  0  0  0
    5.7275    2.1034    0.0000 C   0  0  0  0  0  0  0  0  0  0  0  0
    3.1807   -0.9402    0.0000 C   0  0  0  0  0  0  0  0  0  0  0  0
    1.8691   -0.2124    0.0000 C   0  0  0  0  0  0  0  0  0  0  0  0
    0.5830   -0.9843    0.0000 O   0  0  0  0  0  0  0  0  0  0  0  0
   -0.7286   -0.2565    0.0000 C   0  0  0  0  0  0  0  0  0  0  0  0
   -0.7540    1.2433    0.0000 O   0  0  0  0  0  0  0  0  0  0  0  0
   -2.0147   -1.0285    0.0000 C   0  0  0  0  0  0  0  0  0  0  0  0
   -2.6480    0.3313    0.0000 C   0  0  0  0  0  0  0  0  0  0  0  0
   -1.7870    1.5596    0.0000 C   0  0  0  0  0  0  0  0  0  0  0  0
   -2.4203    2.9194    0.0000 C   0  0  0  0  0  0  0  0  0  0  0  0
   -3.9145    3.0508    0.0000 C   0  0  0  0  0  0  0  0  0  0  0  0
   -4.7755    1.8225    0.0000 C   0  0  0  0  0  0  0  0  0  0  0  0
   -4.1422    0.4627    0.0000 C   0  0  0  0  0  0  0  0  0  0  0  0
   -1.1125   -2.2268    0.0000 C   0  0  0  0  0  0  0  0  0  0  0  0
   -1.9735   -3.4552    0.0000 C   0  0  0  0  0  0  0  0  0  0  0  0
   -3.4077   -3.0159    0.0000 C   0  0  0  0  0  0  0  0  0  0  0  0
   -3.4332   -1.5161    0.0000 C   0  0  0  0  0  0  0  0  0  0  0  0
  1  2  1  0
  2  3  1  0
  3  4  1  0
  4  5  1  0
  3  6  1  0
  6  7  1  0
  7  8  1  0
  8  9  1  0
  9 10  2  0
  9 11  1  0
 11 12  1  0
 12 13  2  0
 13 14  1  0
 14 15  2  0
 15 16  1  0
 16 17  2  0
 11 18  1  0
 18 19  1  0
 19 20  1  0
 20 21  1  0
 21 11  1  0
 17 12  1  0
M  END
>  <ChemBL_ID>  (914) 
CHEMBL61946

>  <Compound_Key>  (914) 
caramipen

>  <Ki>  (914) 
658.0

>  <database>  (914) 
CHEMBL

>  <Assay_ChEMBL_ID>  (914) 
CHEMBL805221

>  <Document_ChEMBL_ID>  (914) 
CHEMBL1127555

$$$$

     RDKit          2D

 24 26  0  0  0  0  0  0  0  0999 V2000
    1.6599    0.1489    0.0000 O   0  0  0  0  0  0  0  0  0  0  0  0
    2.1267   -1.2766    0.0000 C   0  0  0  0  0  0  0  0  0  0  0  0
    3.5946   -1.5851    0.0000 C   0  0  0  0  0  0  0  0  0  0  0  0
    4.5957   -0.4681    0.0000 C   0  0  0  0  0  0  0  0  0  0  0  0
    6.0637   -0.7766    0.0000 C   0  0  0  0  0  0  0  0  0  0  0  0
    7.0648    0.3405    0.0000 C   0  0  0  0  0  0  0  0  0  0  0  0
    6.5980    1.7660    0.0000 C   0  0  0  0  0  0  0  0  0  0  0  0
    7.5991    2.8830    0.0000 I   0  0  0  0  0  0  0  0  0  0  0  0
    5.1301    2.0745    0.0000 C   0  0  0  0  0  0  0  0  0  0  0  0
    4.1289    0.9575    0.0000 C   0  0  0  0  0  0  0  0  0  0  0  0
    1.1255   -2.3936    0.0000 N   0  0  0  0  0  0  0  0  0  0  0  0
   -0.3424   -2.0851    0.0000 C   0  0  0  0  0  0  0  0  0  0  0  0
   -0.8092   -0.6596    0.0000 C   0  0  0  0  0  0  0  0  0  0  0  0
   -2.2771   -0.3511    0.0000 C   0  0  0  0  0  0  0  0  0  0  0  0
   -3.2783   -1.4681    0.0000 N   0  0  0  0  0  0  0  0  0  0  0  0
   -4.7462   -1.1596    0.0000 C   0  0  0  0  0  0  0  0  0  0  0  0
   -5.2130    0.2659    0.0000 C   0  0  0  0  0  0  0  0  0  0  0  0
   -4.2119    1.3829    0.0000 C   0  0  0  0  0  0  0  0  0  0  0  0
   -4.6787    2.8085    0.0000 C   0  0  0  0  0  0  0  0  0  0  0  0
   -6.1466    3.1170    0.0000 C   0  0  0  0  0  0  0  0  0  0  0  0
   -7.1477    2.0000    0.0000 C   0  0  0  0  0  0  0  0  0  0  0  0
   -6.6809    0.5744    0.0000 C   0  0  0  0  0  0  0  0  0  0  0  0
   -2.8115   -2.8936    0.0000 C   0  0  0  0  0  0  0  0  0  0  0  0
   -1.3435   -3.2021    0.0000 C   0  0  0  0  0  0  0  0  0  0  0  0
  1  2  2  0
  2  3  1  0
  3  4  1  0
  4  5  2  0
  5  6  1  0
  6  7  2  0
  7  8  1  0
  7  9  1  0
  9 10  2  0
  2 11  1  0
 11 12  1  0
 12 13  1  0
 13 14  1  0
 14 15  1  0
 15 16  1  0
 16 17  1  0
 17 18  2  0
 18 19  1  0
 19 20  2  0
 20 21  1  0
 21 22  2  0
 15 23  1  0
 23 24  1  0
 10  4  1  0
 24 12  1  0
 22 17  1  0
M  END
>  <ChemBL_ID>  (915) 
CHEMBL344402

>  <Compound_Key>  (915) 
16

>  <Ki>  (915) 
61.31

>  <database>  (915) 
CHEMBL

>  <Assay_ChEMBL_ID>  (915) 
CHEMBL846104

>  <Document_ChEMBL_ID>  (915) 
CHEMBL1134305

$$$$

     RDKit          2D

 27 30  0  0  0  0  0  0  0  0999 V2000
    1.1441   -1.4707    0.0000 O   0  0  0  0  0  0  0  0  0  0  0  0
    1.3431    0.0160    0.0000 C   0  0  0  0  0  0  0  0  0  0  0  0
    2.7301    0.5871    0.0000 C   0  0  0  0  0  0  0  0  0  0  0  0
    3.9182   -0.3286    0.0000 C   0  0  0  0  0  0  0  0  0  0  0  0
    3.8758   -1.8280    0.0000 C   0  0  0  0  0  0  0  0  0  0  0  0
    5.2886   -2.3317    0.0000 N   0  0  0  0  0  0  0  0  0  0  0  0
    6.2043   -1.1437    0.0000 C   0  0  0  0  0  0  0  0  0  0  0  0
    7.7000   -1.0292    0.0000 C   0  0  0  0  0  0  0  0  0  0  0  0
    8.3486    0.3233    0.0000 C   0  0  0  0  0  0  0  0  0  0  0  0
    7.5016    1.5613    0.0000 C   0  0  0  0  0  0  0  0  0  0  0  0
    8.1503    2.9138    0.0000 Br  0  0  0  0  0  0  0  0  0  0  0  0
    6.0060    1.4468    0.0000 C   0  0  0  0  0  0  0  0  0  0  0  0
    5.3574    0.0943    0.0000 C   0  0  0  0  0  0  0  0  0  0  0  0
    0.1550    0.9317    0.0000 N   0  0  0  0  0  0  0  0  0  0  0  0
   -1.2320    0.3606    0.0000 C   0  0  0  0  0  0  0  0  0  0  0  0
   -2.4201    1.2763    0.0000 C   0  0  0  0  0  0  0  0  0  0  0  0
   -3.8071    0.7052    0.0000 C   0  0  0  0  0  0  0  0  0  0  0  0
   -4.0061   -0.7815    0.0000 N   0  0  0  0  0  0  0  0  0  0  0  0
   -5.3931   -1.3526    0.0000 C   0  0  0  0  0  0  0  0  0  0  0  0
   -6.5812   -0.4369    0.0000 C   0  0  0  0  0  0  0  0  0  0  0  0
   -6.3823    1.0499    0.0000 C   0  0  0  0  0  0  0  0  0  0  0  0
   -7.5703    1.9655    0.0000 C   0  0  0  0  0  0  0  0  0  0  0  0
   -8.9574    1.3945    0.0000 C   0  0  0  0  0  0  0  0  0  0  0  0
   -9.1563   -0.0923    0.0000 C   0  0  0  0  0  0  0  0  0  0  0  0
   -7.9683   -1.0080    0.0000 C   0  0  0  0  0  0  0  0  0  0  0  0
   -2.8180   -1.6972    0.0000 C   0  0  0  0  0  0  0  0  0  0  0  0
   -1.4310   -1.1261    0.0000 C   0  0  0  0  0  0  0  0  0  0  0  0
  1  2  2  0
  2  3  1  0
  3  4  1  0
  4  5  2  0
  5  6  1  0
  6  7  1  0
  7  8  2  0
  8  9  1  0
  9 10  2  0
 10 11  1  0
 10 12  1  0
 12 13  2  0
  2 14  1  0
 14 15  1  0
 15 16  1  0
 16 17  1  0
 17 18  1  0
 18 19  1  0
 19 20  1  0
 20 21  2  0
 21 22  1  0
 22 23  2  0
 23 24  1  0
 24 25  2  0
 18 26  1  0
 26 27  1  0
 13  4  1  0
 27 15  1  0
 13  7  1  0
 25 20  1  0
M  END
>  <ChemBL_ID>  (916) 
CHEMBL139922

>  <Compound_Key>  (916) 
11

>  <Ki>  (916) 
678.28

>  <database>  (916) 
CHEMBL

>  <Assay_ChEMBL_ID>  (916) 
CHEMBL846104

>  <Document_ChEMBL_ID>  (916) 
CHEMBL1134305

$$$$

     RDKit          2D

 25 27  0  0  0  0  0  0  0  0999 V2000
    2.1848    0.3003    0.0000 O   0  0  0  0  0  0  0  0  0  0  0  0
    2.7662   -1.0824    0.0000 C   0  0  0  0  0  0  0  0  0  0  0  0
    4.2544   -1.2703    0.0000 C   0  0  0  0  0  0  0  0  0  0  0  0
    5.1612   -0.0754    0.0000 C   0  0  0  0  0  0  0  0  0  0  0  0
    6.6494   -0.2633    0.0000 C   0  0  0  0  0  0  0  0  0  0  0  0
    7.5562    0.9316    0.0000 C   0  0  0  0  0  0  0  0  0  0  0  0
    6.9748    2.3143    0.0000 C   0  0  0  0  0  0  0  0  0  0  0  0
    5.4866    2.5022    0.0000 C   0  0  0  0  0  0  0  0  0  0  0  0
    4.5798    1.3073    0.0000 C   0  0  0  0  0  0  0  0  0  0  0  0
    3.0916    1.4952    0.0000 F   0  0  0  0  0  0  0  0  0  0  0  0
    1.8594   -2.2773    0.0000 N   0  0  0  0  0  0  0  0  0  0  0  0
    0.3712   -2.0894    0.0000 C   0  0  0  0  0  0  0  0  0  0  0  0
   -0.2102   -0.7067    0.0000 C   0  0  0  0  0  0  0  0  0  0  0  0
   -1.6984   -0.5188    0.0000 C   0  0  0  0  0  0  0  0  0  0  0  0
   -2.6051   -1.7137    0.0000 N   0  0  0  0  0  0  0  0  0  0  0  0
   -4.0933   -1.5259    0.0000 C   0  0  0  0  0  0  0  0  0  0  0  0
   -4.6747   -0.1431    0.0000 C   0  0  0  0  0  0  0  0  0  0  0  0
   -3.7679    1.0518    0.0000 C   0  0  0  0  0  0  0  0  0  0  0  0
   -4.3493    2.4345    0.0000 C   0  0  0  0  0  0  0  0  0  0  0  0
   -5.8375    2.6224    0.0000 C   0  0  0  0  0  0  0  0  0  0  0  0
   -6.7443    1.4275    0.0000 C   0  0  0  0  0  0  0  0  0  0  0  0
   -8.2325    1.6154    0.0000 I   0  0  0  0  0  0  0  0  0  0  0  0
   -6.1629    0.0448    0.0000 C   0  0  0  0  0  0  0  0  0  0  0  0
   -2.0237   -3.0965    0.0000 C   0  0  0  0  0  0  0  0  0  0  0  0
   -0.5356   -3.2843    0.0000 C   0  0  0  0  0  0  0  0  0  0  0  0
  1  2  2  0
  2  3  1  0
  3  4  1  0
  4  5  2  0
  5  6  1  0
  6  7  2  0
  7  8  1  0
  8  9  2  0
  9 10  1  0
  2 11  1  0
 11 12  1  0
 12 13  1  0
 13 14  1  0
 14 15  1  0
 15 16  1  0
 16 17  1  0
 17 18  2  0
 18 19  1  0
 19 20  2  0
 20 21  1  0
 21 22  1  0
 21 23  2  0
 15 24  1  0
 24 25  1  0
  9  4  1  0
 25 12  1  0
 23 17  1  0
M  END
>  <ChemBL_ID>  (917) 
CHEMBL343137

>  <Compound_Key>  (917) 
33

>  <Ki>  (917) 
181.3

>  <database>  (917) 
CHEMBL

>  <Assay_ChEMBL_ID>  (917) 
CHEMBL846104

>  <Document_ChEMBL_ID>  (917) 
CHEMBL1134305

$$$$

     RDKit          2D

 27 30  0  0  0  0  0  0  0  0999 V2000
    1.2939   -1.3794    0.0000 O   0  0  0  0  0  0  0  0  0  0  0  0
    1.4657    0.1107    0.0000 C   0  0  0  0  0  0  0  0  0  0  0  0
    2.8421    0.7070    0.0000 C   0  0  0  0  0  0  0  0  0  0  0  0
    4.0467   -0.1868    0.0000 C   0  0  0  0  0  0  0  0  0  0  0  0
    3.8749   -1.6769    0.0000 C   0  0  0  0  0  0  0  0  0  0  0  0
    5.0795   -2.5707    0.0000 C   0  0  0  0  0  0  0  0  0  0  0  0
    6.4559   -1.9744    0.0000 C   0  0  0  0  0  0  0  0  0  0  0  0
    6.6277   -0.4843    0.0000 C   0  0  0  0  0  0  0  0  0  0  0  0
    8.0040    0.1121    0.0000 C   0  0  0  0  0  0  0  0  0  0  0  0
    8.1758    1.6022    0.0000 C   0  0  0  0  0  0  0  0  0  0  0  0
    6.9712    2.4960    0.0000 C   0  0  0  0  0  0  0  0  0  0  0  0
    5.5948    1.8997    0.0000 C   0  0  0  0  0  0  0  0  0  0  0  0
    5.4230    0.4095    0.0000 C   0  0  0  0  0  0  0  0  0  0  0  0
    0.2611    1.0045    0.0000 N   0  0  0  0  0  0  0  0  0  0  0  0
   -1.1153    0.4082    0.0000 C   0  0  0  0  0  0  0  0  0  0  0  0
   -2.3199    1.3020    0.0000 C   0  0  0  0  0  0  0  0  0  0  0  0
   -3.6963    0.7056    0.0000 C   0  0  0  0  0  0  0  0  0  0  0  0
   -3.8680   -0.7845    0.0000 N   0  0  0  0  0  0  0  0  0  0  0  0
   -5.2444   -1.3808    0.0000 C   0  0  0  0  0  0  0  0  0  0  0  0
   -6.4490   -0.4870    0.0000 C   0  0  0  0  0  0  0  0  0  0  0  0
   -6.2773    1.0031    0.0000 C   0  0  0  0  0  0  0  0  0  0  0  0
   -7.4819    1.8969    0.0000 C   0  0  0  0  0  0  0  0  0  0  0  0
   -8.8583    1.3006    0.0000 C   0  0  0  0  0  0  0  0  0  0  0  0
   -9.0300   -0.1895    0.0000 C   0  0  0  0  0  0  0  0  0  0  0  0
   -7.8254   -1.0833    0.0000 C   0  0  0  0  0  0  0  0  0  0  0  0
   -2.6634   -1.6783    0.0000 C   0  0  0  0  0  0  0  0  0  0  0  0
   -1.2871   -1.0820    0.0000 C   0  0  0  0  0  0  0  0  0  0  0  0
  1  2  2  0
  2  3  1  0
  3  4  1  0
  4  5  2  0
  5  6  1  0
  6  7  2  0
  7  8  1  0
  8  9  2  0
  9 10  1  0
 10 11  2  0
 11 12  1  0
 12 13  2  0
  2 14  1  0
 14 15  1  0
 15 16  1  0
 16 17  1  0
 17 18  1  0
 18 19  1  0
 19 20  1  0
 20 21  2  0
 21 22  1  0
 22 23  2  0
 23 24  1  0
 24 25  2  0
 18 26  1  0
 26 27  1  0
 13  4  1  0
 27 15  1  0
 13  8  1  0
 25 20  1  0
M  END
>  <ChemBL_ID>  (918) 
CHEMBL336037

>  <Compound_Key>  (918) 
7

>  <Ki>  (918) 
39.44

>  <database>  (918) 
CHEMBL

>  <Assay_ChEMBL_ID>  (918) 
CHEMBL846104

>  <Document_ChEMBL_ID>  (918) 
CHEMBL1134305

$$$$

     RDKit          2D

 24 26  0  0  0  0  0  0  0  0999 V2000
    2.2257    0.3529    0.0000 O   0  0  0  0  0  0  0  0  0  0  0  0
    2.8622   -1.0054    0.0000 C   0  0  0  0  0  0  0  0  0  0  0  0
    4.3568   -1.1332    0.0000 C   0  0  0  0  0  0  0  0  0  0  0  0
    5.2148    0.0972    0.0000 C   0  0  0  0  0  0  0  0  0  0  0  0
    6.7093   -0.0307    0.0000 C   0  0  0  0  0  0  0  0  0  0  0  0
    7.5673    1.1997    0.0000 C   0  0  0  0  0  0  0  0  0  0  0  0
    6.9307    2.5579    0.0000 C   0  0  0  0  0  0  0  0  0  0  0  0
    5.4362    2.6858    0.0000 C   0  0  0  0  0  0  0  0  0  0  0  0
    4.5782    1.4554    0.0000 C   0  0  0  0  0  0  0  0  0  0  0  0
    2.0042   -2.2358    0.0000 N   0  0  0  0  0  0  0  0  0  0  0  0
    0.5097   -2.1079    0.0000 C   0  0  0  0  0  0  0  0  0  0  0  0
   -0.1269   -0.7497    0.0000 C   0  0  0  0  0  0  0  0  0  0  0  0
   -1.6214   -0.6218    0.0000 C   0  0  0  0  0  0  0  0  0  0  0  0
   -2.4794   -1.8522    0.0000 N   0  0  0  0  0  0  0  0  0  0  0  0
   -3.9739   -1.7244    0.0000 C   0  0  0  0  0  0  0  0  0  0  0  0
   -4.6105   -0.3661    0.0000 C   0  0  0  0  0  0  0  0  0  0  0  0
   -3.7525    0.8642    0.0000 C   0  0  0  0  0  0  0  0  0  0  0  0
   -4.3890    2.2225    0.0000 C   0  0  0  0  0  0  0  0  0  0  0  0
   -5.8836    2.3503    0.0000 C   0  0  0  0  0  0  0  0  0  0  0  0
   -6.5201    3.7086    0.0000 I   0  0  0  0  0  0  0  0  0  0  0  0
   -6.7416    1.1199    0.0000 C   0  0  0  0  0  0  0  0  0  0  0  0
   -6.1050   -0.2383    0.0000 C   0  0  0  0  0  0  0  0  0  0  0  0
   -1.8428   -3.2105    0.0000 C   0  0  0  0  0  0  0  0  0  0  0  0
   -0.3483   -3.3383    0.0000 C   0  0  0  0  0  0  0  0  0  0  0  0
  1  2  2  0
  2  3  1  0
  3  4  1  0
  4  5  2  0
  5  6  1  0
  6  7  2  0
  7  8  1  0
  8  9  2  0
  2 10  1  0
 10 11  1  0
 11 12  1  0
 12 13  1  0
 13 14  1  0
 14 15  1  0
 15 16  1  0
 16 17  2  0
 17 18  1  0
 18 19  2  0
 19 20  1  0
 19 21  1  0
 21 22  2  0
 14 23  1  0
 23 24  1  0
  9  4  1  0
 24 11  1  0
 22 16  1  0
M  END
>  <ChemBL_ID>  (919) 
CHEMBL139735

>  <Compound_Key>  (919) 
22

>  <Ki>  (919) 
693.54

>  <database>  (919) 
CHEMBL

>  <Assay_ChEMBL_ID>  (919) 
CHEMBL846104

>  <Document_ChEMBL_ID>  (919) 
CHEMBL1134305

$$$$

     RDKit          2D

 25 27  0  0  0  0  0  0  0  0999 V2000
    2.1175    0.1407    0.0000 O   0  0  0  0  0  0  0  0  0  0  0  0
    2.6568   -1.2590    0.0000 C   0  0  0  0  0  0  0  0  0  0  0  0
    4.1386   -1.4919    0.0000 C   0  0  0  0  0  0  0  0  0  0  0  0
    5.0811   -0.3250    0.0000 C   0  0  0  0  0  0  0  0  0  0  0  0
    6.5630   -0.5579    0.0000 C   0  0  0  0  0  0  0  0  0  0  0  0
    7.5055    0.6090    0.0000 C   0  0  0  0  0  0  0  0  0  0  0  0
    6.9662    2.0087    0.0000 C   0  0  0  0  0  0  0  0  0  0  0  0
    5.4844    2.2416    0.0000 C   0  0  0  0  0  0  0  0  0  0  0  0
    4.9452    3.6413    0.0000 Br  0  0  0  0  0  0  0  0  0  0  0  0
    4.5419    1.0747    0.0000 C   0  0  0  0  0  0  0  0  0  0  0  0
    1.7142   -2.4259    0.0000 N   0  0  0  0  0  0  0  0  0  0  0  0
    0.2324   -2.1931    0.0000 C   0  0  0  0  0  0  0  0  0  0  0  0
   -0.3069   -0.7934    0.0000 C   0  0  0  0  0  0  0  0  0  0  0  0
   -1.7887   -0.5605    0.0000 C   0  0  0  0  0  0  0  0  0  0  0  0
   -2.7312   -1.7274    0.0000 N   0  0  0  0  0  0  0  0  0  0  0  0
   -4.2131   -1.4946    0.0000 C   0  0  0  0  0  0  0  0  0  0  0  0
   -4.7523   -0.0948    0.0000 C   0  0  0  0  0  0  0  0  0  0  0  0
   -3.8098    1.0720    0.0000 C   0  0  0  0  0  0  0  0  0  0  0  0
   -4.3490    2.4717    0.0000 C   0  0  0  0  0  0  0  0  0  0  0  0
   -5.8309    2.7046    0.0000 C   0  0  0  0  0  0  0  0  0  0  0  0
   -6.7734    1.5377    0.0000 C   0  0  0  0  0  0  0  0  0  0  0  0
   -8.2552    1.7705    0.0000 I   0  0  0  0  0  0  0  0  0  0  0  0
   -6.2341    0.1380    0.0000 C   0  0  0  0  0  0  0  0  0  0  0  0
   -2.1920   -3.1271    0.0000 C   0  0  0  0  0  0  0  0  0  0  0  0
   -0.7102   -3.3600    0.0000 C   0  0  0  0  0  0  0  0  0  0  0  0
  1  2  2  0
  2  3  1  0
  3  4  1  0
  4  5  2  0
  5  6  1  0
  6  7  2  0
  7  8  1  0
  8  9  1  0
  8 10  2  0
  2 11  1  0
 11 12  1  0
 12 13  1  0
 13 14  1  0
 14 15  1  0
 15 16  1  0
 16 17  1  0
 17 18  2  0
 18 19  1  0
 19 20  2  0
 20 21  1  0
 21 22  1  0
 21 23  2  0
 15 24  1  0
 24 25  1  0
 10  4  1  0
 25 12  1  0
 23 17  1  0
M  END
>  <ChemBL_ID>  (920) 
CHEMBL337796

>  <Compound_Key>  (920) 
42

>  <Ki>  (920) 
59.32

>  <database>  (920) 
CHEMBL

>  <Assay_ChEMBL_ID>  (920) 
CHEMBL846104

>  <Document_ChEMBL_ID>  (920) 
CHEMBL1134305

$$$$

     RDKit          2D

 25 27  0  0  0  0  0  0  0  0999 V2000
    2.0401    0.1028    0.0000 O   0  0  0  0  0  0  0  0  0  0  0  0
    2.6172   -1.2817    0.0000 C   0  0  0  0  0  0  0  0  0  0  0  0
    4.1048   -1.4742    0.0000 C   0  0  0  0  0  0  0  0  0  0  0  0
    5.0153   -0.2821    0.0000 C   0  0  0  0  0  0  0  0  0  0  0  0
    6.5029   -0.4746    0.0000 C   0  0  0  0  0  0  0  0  0  0  0  0
    7.4133    0.7175    0.0000 C   0  0  0  0  0  0  0  0  0  0  0  0
    6.8362    2.1020    0.0000 C   0  0  0  0  0  0  0  0  0  0  0  0
    5.3486    2.2945    0.0000 C   0  0  0  0  0  0  0  0  0  0  0  0
    4.7715    3.6790    0.0000 F   0  0  0  0  0  0  0  0  0  0  0  0
    4.4381    1.1024    0.0000 C   0  0  0  0  0  0  0  0  0  0  0  0
    1.7067   -2.4738    0.0000 N   0  0  0  0  0  0  0  0  0  0  0  0
    0.2191   -2.2813    0.0000 C   0  0  0  0  0  0  0  0  0  0  0  0
   -0.3580   -0.8968    0.0000 C   0  0  0  0  0  0  0  0  0  0  0  0
   -1.8456   -0.7043    0.0000 C   0  0  0  0  0  0  0  0  0  0  0  0
   -2.7561   -1.8964    0.0000 N   0  0  0  0  0  0  0  0  0  0  0  0
   -4.2437   -1.7039    0.0000 C   0  0  0  0  0  0  0  0  0  0  0  0
   -4.8208   -0.3194    0.0000 C   0  0  0  0  0  0  0  0  0  0  0  0
   -3.9104    0.8727    0.0000 C   0  0  0  0  0  0  0  0  0  0  0  0
   -4.4875    2.2572    0.0000 C   0  0  0  0  0  0  0  0  0  0  0  0
   -5.9751    2.4497    0.0000 C   0  0  0  0  0  0  0  0  0  0  0  0
   -6.5522    3.8342    0.0000 I   0  0  0  0  0  0  0  0  0  0  0  0
   -6.8856    1.2576    0.0000 C   0  0  0  0  0  0  0  0  0  0  0  0
   -6.3084   -0.1269    0.0000 C   0  0  0  0  0  0  0  0  0  0  0  0
   -2.1790   -3.2809    0.0000 C   0  0  0  0  0  0  0  0  0  0  0  0
   -0.6914   -3.4734    0.0000 C   0  0  0  0  0  0  0  0  0  0  0  0
  1  2  2  0
  2  3  1  0
  3  4  1  0
  4  5  2  0
  5  6  1  0
  6  7  2  0
  7  8  1  0
  8  9  1  0
  8 10  2  0
  2 11  1  0
 11 12  1  0
 12 13  1  0
 13 14  1  0
 14 15  1  0
 15 16  1  0
 16 17  1  0
 17 18  2  0
 18 19  1  0
 19 20  2  0
 20 21  1  0
 20 22  1  0
 22 23  2  0
 15 24  1  0
 24 25  1  0
 10  4  1  0
 25 12  1  0
 23 17  1  0
M  END
>  <ChemBL_ID>  (921) 
CHEMBL344425

>  <Compound_Key>  (921) 
37

>  <Ki>  (921) 
167.63

>  <database>  (921) 
CHEMBL

>  <Assay_ChEMBL_ID>  (921) 
CHEMBL846104

>  <Document_ChEMBL_ID>  (921) 
CHEMBL1134305

$$$$

     RDKit          2D

 24 26  0  0  0  0  0  0  0  0999 V2000
    2.2257    0.3529    0.0000 O   0  0  0  0  0  0  0  0  0  0  0  0
    2.8622   -1.0054    0.0000 C   0  0  0  0  0  0  0  0  0  0  0  0
    4.3568   -1.1332    0.0000 C   0  0  0  0  0  0  0  0  0  0  0  0
    5.2148    0.0972    0.0000 C   0  0  0  0  0  0  0  0  0  0  0  0
    6.7093   -0.0307    0.0000 C   0  0  0  0  0  0  0  0  0  0  0  0
    7.5673    1.1997    0.0000 C   0  0  0  0  0  0  0  0  0  0  0  0
    6.9307    2.5579    0.0000 C   0  0  0  0  0  0  0  0  0  0  0  0
    5.4362    2.6858    0.0000 C   0  0  0  0  0  0  0  0  0  0  0  0
    4.5782    1.4554    0.0000 C   0  0  0  0  0  0  0  0  0  0  0  0
    2.0042   -2.2358    0.0000 N   0  0  0  0  0  0  0  0  0  0  0  0
    0.5097   -2.1079    0.0000 C   0  0  0  0  0  0  0  0  0  0  0  0
   -0.1269   -0.7497    0.0000 C   0  0  0  0  0  0  0  0  0  0  0  0
   -1.6214   -0.6218    0.0000 C   0  0  0  0  0  0  0  0  0  0  0  0
   -2.4794   -1.8522    0.0000 N   0  0  0  0  0  0  0  0  0  0  0  0
   -3.9739   -1.7244    0.0000 C   0  0  0  0  0  0  0  0  0  0  0  0
   -4.6105   -0.3661    0.0000 C   0  0  0  0  0  0  0  0  0  0  0  0
   -3.7525    0.8642    0.0000 C   0  0  0  0  0  0  0  0  0  0  0  0
   -4.3890    2.2225    0.0000 C   0  0  0  0  0  0  0  0  0  0  0  0
   -5.8836    2.3503    0.0000 C   0  0  0  0  0  0  0  0  0  0  0  0
   -6.5201    3.7086    0.0000 F   0  0  0  0  0  0  0  0  0  0  0  0
   -6.7416    1.1199    0.0000 C   0  0  0  0  0  0  0  0  0  0  0  0
   -6.1050   -0.2383    0.0000 C   0  0  0  0  0  0  0  0  0  0  0  0
   -1.8428   -3.2105    0.0000 C   0  0  0  0  0  0  0  0  0  0  0  0
   -0.3483   -3.3383    0.0000 C   0  0  0  0  0  0  0  0  0  0  0  0
  1  2  2  0
  2  3  1  0
  3  4  1  0
  4  5  2  0
  5  6  1  0
  6  7  2  0
  7  8  1  0
  8  9  2  0
  2 10  1  0
 10 11  1  0
 11 12  1  0
 12 13  1  0
 13 14  1  0
 14 15  1  0
 15 16  1  0
 16 17  2  0
 17 18  1  0
 18 19  2  0
 19 20  1  0
 19 21  1  0
 21 22  2  0
 14 23  1  0
 23 24  1  0
  9  4  1  0
 24 11  1  0
 22 16  1  0
M  END
>  <ChemBL_ID>  (922) 
CHEMBL341957

>  <Compound_Key>  (922) 
19

>  <Ki>  (922) 
82.89

>  <database>  (922) 
CHEMBL

>  <Assay_ChEMBL_ID>  (922) 
CHEMBL846104

>  <Document_ChEMBL_ID>  (922) 
CHEMBL1134305

$$$$

     RDKit          2D

 27 29  0  0  0  0  0  0  0  0999 V2000
    3.2501    0.3913    0.0000 O   0  0  0  0  0  0  0  0  0  0  0  0
    3.9242   -0.9486    0.0000 C   0  0  0  0  0  0  0  0  0  0  0  0
    5.4217   -1.0348    0.0000 C   0  0  0  0  0  0  0  0  0  0  0  0
    6.2451    0.2190    0.0000 C   0  0  0  0  0  0  0  0  0  0  0  0
    7.7426    0.1329    0.0000 C   0  0  0  0  0  0  0  0  0  0  0  0
    8.5660    1.3867    0.0000 C   0  0  0  0  0  0  0  0  0  0  0  0
    7.8919    2.7267    0.0000 C   0  0  0  0  0  0  0  0  0  0  0  0
    6.3943    2.8128    0.0000 C   0  0  0  0  0  0  0  0  0  0  0  0
    5.5710    1.5590    0.0000 C   0  0  0  0  0  0  0  0  0  0  0  0
    3.1008   -2.2025    0.0000 N   0  0  0  0  0  0  0  0  0  0  0  0
    1.6033   -2.1163    0.0000 C   0  0  0  0  0  0  0  0  0  0  0  0
    0.9292   -0.7763    0.0000 C   0  0  0  0  0  0  0  0  0  0  0  0
   -0.5684   -0.6902    0.0000 C   0  0  0  0  0  0  0  0  0  0  0  0
   -1.3917   -1.9440    0.0000 N   0  0  0  0  0  0  0  0  0  0  0  0
   -2.8893   -1.8579    0.0000 C   0  0  0  0  0  0  0  0  0  0  0  0
   -3.5634   -0.5179    0.0000 C   0  0  0  0  0  0  0  0  0  0  0  0
   -2.7400    0.7359    0.0000 C   0  0  0  0  0  0  0  0  0  0  0  0
   -3.4142    2.0759    0.0000 C   0  0  0  0  0  0  0  0  0  0  0  0
   -4.9117    2.1621    0.0000 C   0  0  0  0  0  0  0  0  0  0  0  0
   -5.7351    0.9082    0.0000 C   0  0  0  0  0  0  0  0  0  0  0  0
   -7.2326    0.9944    0.0000 C   0  0  0  0  0  0  0  0  0  0  0  0
   -8.7301    1.0805    0.0000 F   0  0  0  0  0  0  0  0  0  0  0  0
   -7.1465    2.4919    0.0000 F   0  0  0  0  0  0  0  0  0  0  0  0
   -7.3188   -0.5031    0.0000 F   0  0  0  0  0  0  0  0  0  0  0  0
   -5.0609   -0.4317    0.0000 C   0  0  0  0  0  0  0  0  0  0  0  0
   -0.7176   -3.2840    0.0000 C   0  0  0  0  0  0  0  0  0  0  0  0
    0.7799   -3.3701    0.0000 C   0  0  0  0  0  0  0  0  0  0  0  0
  1  2  2  0
  2  3  1  0
  3  4  1  0
  4  5  2  0
  5  6  1  0
  6  7  2  0
  7  8  1  0
  8  9  2  0
  2 10  1  0
 10 11  1  0
 11 12  1  0
 12 13  1  0
 13 14  1  0
 14 15  1  0
 15 16  1  0
 16 17  2  0
 17 18  1  0
 18 19  2  0
 19 20  1  0
 20 21  1  0
 21 22  1  0
 21 23  1  0
 21 24  1  0
 20 25  2  0
 14 26  1  0
 26 27  1  0
  9  4  1  0
 27 11  1  0
 25 16  1  0
M  END
>  <ChemBL_ID>  (923) 
CHEMBL423917

>  <Compound_Key>  (923) 
24

>  <Ki>  (923) 
513.16

>  <database>  (923) 
CHEMBL

>  <Assay_ChEMBL_ID>  (923) 
CHEMBL846104

>  <Document_ChEMBL_ID>  (923) 
CHEMBL1134305

$$$$

     RDKit          2D

 27 29  0  0  0  0  0  0  0  0999 V2000
    2.9589    0.3163    0.0000 O   0  0  0  0  0  0  0  0  0  0  0  0
    3.7829   -0.9371    0.0000 C   0  0  0  0  0  0  0  0  0  0  0  0
    5.2803   -0.8503    0.0000 C   0  0  0  0  0  0  0  0  0  0  0  0
    5.9538    0.4900    0.0000 C   0  0  0  0  0  0  0  0  0  0  0  0
    7.4513    0.5769    0.0000 C   0  0  0  0  0  0  0  0  0  0  0  0
    8.1248    1.9172    0.0000 C   0  0  0  0  0  0  0  0  0  0  0  0
    7.3008    3.1706    0.0000 C   0  0  0  0  0  0  0  0  0  0  0  0
    5.8033    3.0838    0.0000 C   0  0  0  0  0  0  0  0  0  0  0  0
    5.1298    1.7435    0.0000 C   0  0  0  0  0  0  0  0  0  0  0  0
    3.1094   -2.2775    0.0000 N   0  0  0  0  0  0  0  0  0  0  0  0
    1.6119   -2.3643    0.0000 C   0  0  0  0  0  0  0  0  0  0  0  0
    0.7879   -1.1109    0.0000 C   0  0  0  0  0  0  0  0  0  0  0  0
   -0.7096   -1.1978    0.0000 C   0  0  0  0  0  0  0  0  0  0  0  0
   -1.3831   -2.5381    0.0000 N   0  0  0  0  0  0  0  0  0  0  0  0
   -2.8806   -2.6250    0.0000 C   0  0  0  0  0  0  0  0  0  0  0  0
   -3.7045   -1.3716    0.0000 C   0  0  0  0  0  0  0  0  0  0  0  0
   -3.0311   -0.0313    0.0000 C   0  0  0  0  0  0  0  0  0  0  0  0
   -3.8550    1.2221    0.0000 C   0  0  0  0  0  0  0  0  0  0  0  0
   -5.3525    1.1352    0.0000 C   0  0  0  0  0  0  0  0  0  0  0  0
   -6.1765    2.3886    0.0000 C   0  0  0  0  0  0  0  0  0  0  0  0
   -7.0005    3.6421    0.0000 F   0  0  0  0  0  0  0  0  0  0  0  0
   -4.9231    3.2126    0.0000 F   0  0  0  0  0  0  0  0  0  0  0  0
   -7.4299    1.5647    0.0000 F   0  0  0  0  0  0  0  0  0  0  0  0
   -6.0260   -0.2051    0.0000 C   0  0  0  0  0  0  0  0  0  0  0  0
   -5.2020   -1.4585    0.0000 C   0  0  0  0  0  0  0  0  0  0  0  0
   -0.5591   -3.7915    0.0000 C   0  0  0  0  0  0  0  0  0  0  0  0
    0.9384   -3.7046    0.0000 C   0  0  0  0  0  0  0  0  0  0  0  0
  1  2  2  0
  2  3  1  0
  3  4  1  0
  4  5  2  0
  5  6  1  0
  6  7  2  0
  7  8  1  0
  8  9  2  0
  2 10  1  0
 10 11  1  0
 11 12  1  0
 12 13  1  0
 13 14  1  0
 14 15  1  0
 15 16  1  0
 16 17  2  0
 17 18  1  0
 18 19  2  0
 19 20  1  0
 20 21  1  0
 20 22  1  0
 20 23  1  0
 19 24  1  0
 24 25  2  0
 14 26  1  0
 26 27  1  0
  9  4  1  0
 27 11  1  0
 25 16  1  0
M  END
>  <ChemBL_ID>  (924) 
CHEMBL136231

>  <Compound_Key>  (924) 
25

>  <Ki>  (924) 
300.41

>  <database>  (924) 
CHEMBL

>  <Assay_ChEMBL_ID>  (924) 
CHEMBL846104

>  <Document_ChEMBL_ID>  (924) 
CHEMBL1134305

$$$$

     RDKit          2D

 27 30  0  0  0  0  0  0  0  0999 V2000
    1.2939   -1.3794    0.0000 O   0  0  0  0  0  0  0  0  0  0  0  0
    1.4657    0.1107    0.0000 C   0  0  0  0  0  0  0  0  0  0  0  0
    2.8421    0.7070    0.0000 N   0  0  0  0  0  0  0  0  0  0  0  0
    4.0467   -0.1868    0.0000 C   0  0  0  0  0  0  0  0  0  0  0  0
    3.8749   -1.6769    0.0000 C   0  0  0  0  0  0  0  0  0  0  0  0
    5.0795   -2.5707    0.0000 C   0  0  0  0  0  0  0  0  0  0  0  0
    6.4559   -1.9744    0.0000 C   0  0  0  0  0  0  0  0  0  0  0  0
    6.6277   -0.4843    0.0000 C   0  0  0  0  0  0  0  0  0  0  0  0
    8.0040    0.1121    0.0000 C   0  0  0  0  0  0  0  0  0  0  0  0
    8.1758    1.6022    0.0000 C   0  0  0  0  0  0  0  0  0  0  0  0
    6.9712    2.4960    0.0000 C   0  0  0  0  0  0  0  0  0  0  0  0
    5.5948    1.8997    0.0000 C   0  0  0  0  0  0  0  0  0  0  0  0
    5.4230    0.4095    0.0000 C   0  0  0  0  0  0  0  0  0  0  0  0
    0.2611    1.0045    0.0000 N   0  0  0  0  0  0  0  0  0  0  0  0
   -1.1153    0.4082    0.0000 C   0  0  0  0  0  0  0  0  0  0  0  0
   -2.3199    1.3020    0.0000 C   0  0  0  0  0  0  0  0  0  0  0  0
   -3.6963    0.7056    0.0000 C   0  0  0  0  0  0  0  0  0  0  0  0
   -3.8680   -0.7845    0.0000 N   0  0  0  0  0  0  0  0  0  0  0  0
   -5.2444   -1.3808    0.0000 C   0  0  0  0  0  0  0  0  0  0  0  0
   -6.4490   -0.4870    0.0000 C   0  0  0  0  0  0  0  0  0  0  0  0
   -6.2773    1.0031    0.0000 C   0  0  0  0  0  0  0  0  0  0  0  0
   -7.4819    1.8969    0.0000 C   0  0  0  0  0  0  0  0  0  0  0  0
   -8.8583    1.3006    0.0000 C   0  0  0  0  0  0  0  0  0  0  0  0
   -9.0300   -0.1895    0.0000 C   0  0  0  0  0  0  0  0  0  0  0  0
   -7.8254   -1.0833    0.0000 C   0  0  0  0  0  0  0  0  0  0  0  0
   -2.6634   -1.6783    0.0000 C   0  0  0  0  0  0  0  0  0  0  0  0
   -1.2871   -1.0820    0.0000 C   0  0  0  0  0  0  0  0  0  0  0  0
  1  2  2  0
  2  3  1  0
  3  4  1  0
  4  5  2  0
  5  6  1  0
  6  7  2  0
  7  8  1  0
  8  9  2  0
  9 10  1  0
 10 11  2  0
 11 12  1  0
 12 13  2  0
  2 14  1  0
 14 15  1  0
 15 16  1  0
 16 17  1  0
 17 18  1  0
 18 19  1  0
 19 20  1  0
 20 21  2  0
 21 22  1  0
 22 23  2  0
 23 24  1  0
 24 25  2  0
 18 26  1  0
 26 27  1  0
 13  4  1  0
 27 15  1  0
 13  8  1  0
 25 20  1  0
M  END
>  <ChemBL_ID>  (925) 
CHEMBL137041

>  <Compound_Key>  (925) 
8

>  <Ki>  (925) 
25.02

>  <database>  (925) 
CHEMBL

>  <Assay_ChEMBL_ID>  (925) 
CHEMBL846104

>  <Document_ChEMBL_ID>  (925) 
CHEMBL1134305

$$$$

     RDKit          2D

 26 28  0  0  0  0  0  0  0  0999 V2000
    2.7328    0.3224    0.0000 O   0  0  0  0  0  0  0  0  0  0  0  0
    3.5170   -0.9563    0.0000 C   0  0  0  0  0  0  0  0  0  0  0  0
    5.0165   -0.9165    0.0000 C   0  0  0  0  0  0  0  0  0  0  0  0
    5.7317    0.4020    0.0000 C   0  0  0  0  0  0  0  0  0  0  0  0
    7.2312    0.4417    0.0000 C   0  0  0  0  0  0  0  0  0  0  0  0
    7.9465    1.7602    0.0000 C   0  0  0  0  0  0  0  0  0  0  0  0
    7.1623    3.0389    0.0000 C   0  0  0  0  0  0  0  0  0  0  0  0
    5.6628    2.9991    0.0000 C   0  0  0  0  0  0  0  0  0  0  0  0
    4.9476    1.6806    0.0000 C   0  0  0  0  0  0  0  0  0  0  0  0
    2.8017   -2.2748    0.0000 N   0  0  0  0  0  0  0  0  0  0  0  0
    1.3022   -2.3145    0.0000 C   0  0  0  0  0  0  0  0  0  0  0  0
    0.5180   -1.0358    0.0000 C   0  0  0  0  0  0  0  0  0  0  0  0
   -0.9814   -1.0756    0.0000 C   0  0  0  0  0  0  0  0  0  0  0  0
   -1.6967   -2.3941    0.0000 N   0  0  0  0  0  0  0  0  0  0  0  0
   -3.1962   -2.4339    0.0000 C   0  0  0  0  0  0  0  0  0  0  0  0
   -3.9804   -1.1552    0.0000 C   0  0  0  0  0  0  0  0  0  0  0  0
   -3.2651    0.1633    0.0000 C   0  0  0  0  0  0  0  0  0  0  0  0
   -4.0493    1.4420    0.0000 C   0  0  0  0  0  0  0  0  0  0  0  0
   -5.5488    1.4022    0.0000 C   0  0  0  0  0  0  0  0  0  0  0  0
   -6.3329    2.6809    0.0000 N   0  0  0  0  0  4  0  0  0  0  0  0
   -7.8324    2.6411    0.0000 O   0  0  0  0  0  0  0  0  0  0  0  0
   -5.6176    3.9994    0.0000 O   0  0  0  0  0  1  0  0  0  0  0  0
   -6.2640    0.0837    0.0000 C   0  0  0  0  0  0  0  0  0  0  0  0
   -5.4799   -1.1950    0.0000 C   0  0  0  0  0  0  0  0  0  0  0  0
   -0.9125   -3.6728    0.0000 C   0  0  0  0  0  0  0  0  0  0  0  0
    0.5869   -3.6330    0.0000 C   0  0  0  0  0  0  0  0  0  0  0  0
  1  2  2  0
  2  3  1  0
  3  4  1  0
  4  5  2  0
  5  6  1  0
  6  7  2  0
  7  8  1  0
  8  9  2  0
  2 10  1  0
 10 11  1  0
 11 12  1  0
 12 13  1  0
 13 14  1  0
 14 15  1  0
 15 16  1  0
 16 17  2  0
 17 18  1  0
 18 19  2  0
 19 20  1  0
 20 21  2  0
 20 22  1  0
 19 23  1  0
 23 24  2  0
 14 25  1  0
 25 26  1  0
  9  4  1  0
 26 11  1  0
 24 16  1  0
M  CHG  2  20   1  22  -1
M  END
>  <ChemBL_ID>  (926) 
CHEMBL344186

>  <Compound_Key>  (926) 
26

>  <Ki>  (926) 
319.07

>  <database>  (926) 
CHEMBL

>  <Assay_ChEMBL_ID>  (926) 
CHEMBL846104

>  <Document_ChEMBL_ID>  (926) 
CHEMBL1134305

$$$$

     RDKit          2D

 18 19  0  0  0  0  0  0  0  0999 V2000
   -1.0520    3.2241    0.0000 C   0  0  0  0  0  0  0  0  0  0  0  0
   -0.6708    1.7733    0.0000 N   0  0  0  0  0  0  0  0  0  0  0  0
    0.7761    1.3780    0.0000 C   0  0  0  0  0  0  0  0  0  0  0  0
    1.1573   -0.0728    0.0000 C   0  0  0  0  0  0  0  0  0  0  0  0
    2.6043   -0.4681    0.0000 C   0  0  0  0  0  0  0  0  0  0  0  0
    2.9854   -1.9189    0.0000 C   0  0  0  0  0  0  0  0  0  0  0  0
    4.4324   -2.3142    0.0000 C   0  0  0  0  0  0  0  0  0  0  0  0
    5.4982   -1.2587    0.0000 C   0  0  0  0  0  0  0  0  0  0  0  0
    5.1171    0.1921    0.0000 C   0  0  0  0  0  0  0  0  0  0  0  0
    6.1829    1.2475    0.0000 Cl  0  0  0  0  0  0  0  0  0  0  0  0
    3.6701    0.5874    0.0000 C   0  0  0  0  0  0  0  0  0  0  0  0
   -1.7367    0.7178    0.0000 C   0  0  0  0  0  0  0  0  0  0  0  0
   -3.1836    1.1131    0.0000 C   0  0  0  0  0  0  0  0  0  0  0  0
   -4.2495    0.0577    0.0000 N   0  0  0  0  0  0  0  0  0  0  0  0
   -4.0221   -1.4250    0.0000 C   0  0  0  0  0  0  0  0  0  0  0  0
   -5.3619   -2.0994    0.0000 C   0  0  0  0  0  0  0  0  0  0  0  0
   -6.4173   -1.0336    0.0000 C   0  0  0  0  0  0  0  0  0  0  0  0
   -5.7298    0.2996    0.0000 C   0  0  0  0  0  0  0  0  0  0  0  0
  1  2  1  0
  2  3  1  0
  3  4  1  0
  4  5  1  0
  5  6  2  0
  6  7  1  0
  7  8  2  0
  8  9  1  0
  9 10  1  0
  9 11  2  0
  2 12  1  0
 12 13  1  0
 13 14  1  0
 14 15  1  0
 15 16  1  0
 16 17  1  0
 17 18  1  0
 11  5  1  0
 18 14  1  0
M  END
>  <ChemBL_ID>  (927) 
CHEMBL142596

>  <Compound_Key>  (927) 
14

>  <Ki>  (927) 
28.3

>  <database>  (927) 
CHEMBL

>  <Assay_ChEMBL_ID>  (927) 
CHEMBL848651

>  <Document_ChEMBL_ID>  (927) 
CHEMBL1126607

$$$$

     RDKit          2D

 17 18  0  0  0  0  0  0  0  0999 V2000
   -0.6924   -3.7249    0.0000 C   0  0  0  0  0  0  0  0  0  0  0  0
   -0.0059   -2.3913    0.0000 N   0  0  0  0  0  0  0  0  0  0  0  0
   -0.8176   -1.1299    0.0000 C   0  0  0  0  0  0  0  0  0  0  0  0
   -2.3159   -1.2022    0.0000 C   0  0  0  0  0  0  0  0  0  0  0  0
   -3.1277    0.0591    0.0000 N   0  0  0  0  0  0  0  0  0  0  0  0
   -4.6253    0.1438    0.0000 C   0  0  0  0  0  0  0  0  0  0  0  0
   -5.0075    1.5943    0.0000 C   0  0  0  0  0  0  0  0  0  0  0  0
   -3.7462    2.4061    0.0000 C   0  0  0  0  0  0  0  0  0  0  0  0
   -2.5844    1.4573    0.0000 C   0  0  0  0  0  0  0  0  0  0  0  0
    1.4924   -2.3189    0.0000 C   0  0  0  0  0  0  0  0  0  0  0  0
    2.1789   -0.9852    0.0000 C   0  0  0  0  0  0  0  0  0  0  0  0
    3.6771   -0.9129    0.0000 C   0  0  0  0  0  0  0  0  0  0  0  0
    4.3636    0.4208    0.0000 C   0  0  0  0  0  0  0  0  0  0  0  0
    3.5518    1.6822    0.0000 C   0  0  0  0  0  0  0  0  0  0  0  0
    4.2383    3.0158    0.0000 I   0  0  0  0  0  0  0  0  0  0  0  0
    2.0536    1.6098    0.0000 C   0  0  0  0  0  0  0  0  0  0  0  0
    1.3671    0.2761    0.0000 C   0  0  0  0  0  0  0  0  0  0  0  0
  1  2  1  0
  2  3  1  0
  3  4  1  0
  4  5  1  0
  5  6  1  0
  6  7  1  0
  7  8  1  0
  8  9  1  0
  2 10  1  0
 10 11  1  0
 11 12  2  0
 12 13  1  0
 13 14  2  0
 14 15  1  0
 14 16  1  0
 16 17  2  0
  9  5  1  0
 17 11  1  0
M  END
>  <ChemBL_ID>  (928) 
CHEMBL154397

>  <Compound_Key>  (928) 
6

>  <Ki>  (928) 
24.5

>  <database>  (928) 
CHEMBL

>  <Assay_ChEMBL_ID>  (928) 
CHEMBL848651

>  <Document_ChEMBL_ID>  (928) 
CHEMBL1126607

$$$$

     RDKit          2D

 18 19  0  0  0  0  0  0  0  0999 V2000
   -1.3301    3.2998    0.0000 C   0  0  0  0  0  0  0  0  0  0  0  0
   -0.8477    1.8794    0.0000 N   0  0  0  0  0  0  0  0  0  0  0  0
    0.6235    1.5871    0.0000 C   0  0  0  0  0  0  0  0  0  0  0  0
    1.1059    0.1667    0.0000 C   0  0  0  0  0  0  0  0  0  0  0  0
    2.5772   -0.1256    0.0000 C   0  0  0  0  0  0  0  0  0  0  0  0
    3.0596   -1.5460    0.0000 C   0  0  0  0  0  0  0  0  0  0  0  0
    4.5308   -1.8383    0.0000 C   0  0  0  0  0  0  0  0  0  0  0  0
    5.5196   -0.7104    0.0000 C   0  0  0  0  0  0  0  0  0  0  0  0
    6.9908   -1.0028    0.0000 Br  0  0  0  0  0  0  0  0  0  0  0  0
    5.0372    0.7099    0.0000 C   0  0  0  0  0  0  0  0  0  0  0  0
    3.5660    1.0023    0.0000 C   0  0  0  0  0  0  0  0  0  0  0  0
   -1.8365    0.7515    0.0000 C   0  0  0  0  0  0  0  0  0  0  0  0
   -3.3077    1.0439    0.0000 C   0  0  0  0  0  0  0  0  0  0  0  0
   -4.2966   -0.0840    0.0000 N   0  0  0  0  0  0  0  0  0  0  0  0
   -3.9653   -1.5470    0.0000 C   0  0  0  0  0  0  0  0  0  0  0  0
   -5.2543   -2.3141    0.0000 C   0  0  0  0  0  0  0  0  0  0  0  0
   -6.3822   -1.3253    0.0000 C   0  0  0  0  0  0  0  0  0  0  0  0
   -5.7903    0.0530    0.0000 C   0  0  0  0  0  0  0  0  0  0  0  0
  1  2  1  0
  2  3  1  0
  3  4  1  0
  4  5  1  0
  5  6  2  0
  6  7  1  0
  7  8  2  0
  8  9  1  0
  8 10  1  0
 10 11  2  0
  2 12  1  0
 12 13  1  0
 13 14  1  0
 14 15  1  0
 15 16  1  0
 16 17  1  0
 17 18  1  0
 11  5  1  0
 18 14  1  0
M  END
>  <ChemBL_ID>  (929) 
CHEMBL346153

>  <Compound_Key>  (929) 
10

>  <Ki>  (929) 
32.5

>  <database>  (929) 
CHEMBL

>  <Assay_ChEMBL_ID>  (929) 
CHEMBL848651

>  <Document_ChEMBL_ID>  (929) 
CHEMBL1126607

$$$$

     RDKit          2D

 18 19  0  0  0  0  0  0  0  0999 V2000
   -1.0520    3.2241    0.0000 C   0  0  0  0  0  0  0  0  0  0  0  0
   -0.6708    1.7733    0.0000 N   0  0  0  0  0  0  0  0  0  0  0  0
    0.7761    1.3780    0.0000 C   0  0  0  0  0  0  0  0  0  0  0  0
    1.1573   -0.0728    0.0000 C   0  0  0  0  0  0  0  0  0  0  0  0
    2.6043   -0.4681    0.0000 C   0  0  0  0  0  0  0  0  0  0  0  0
    2.9854   -1.9189    0.0000 C   0  0  0  0  0  0  0  0  0  0  0  0
    4.4324   -2.3142    0.0000 C   0  0  0  0  0  0  0  0  0  0  0  0
    5.4982   -1.2587    0.0000 C   0  0  0  0  0  0  0  0  0  0  0  0
    5.1171    0.1921    0.0000 C   0  0  0  0  0  0  0  0  0  0  0  0
    6.1829    1.2475    0.0000 Br  0  0  0  0  0  0  0  0  0  0  0  0
    3.6701    0.5874    0.0000 C   0  0  0  0  0  0  0  0  0  0  0  0
   -1.7367    0.7178    0.0000 C   0  0  0  0  0  0  0  0  0  0  0  0
   -3.1836    1.1131    0.0000 C   0  0  0  0  0  0  0  0  0  0  0  0
   -4.2495    0.0577    0.0000 N   0  0  0  0  0  0  0  0  0  0  0  0
   -4.0221   -1.4250    0.0000 C   0  0  0  0  0  0  0  0  0  0  0  0
   -5.3619   -2.0994    0.0000 C   0  0  0  0  0  0  0  0  0  0  0  0
   -6.4173   -1.0336    0.0000 C   0  0  0  0  0  0  0  0  0  0  0  0
   -5.7298    0.2996    0.0000 C   0  0  0  0  0  0  0  0  0  0  0  0
  1  2  1  0
  2  3  1  0
  3  4  1  0
  4  5  1  0
  5  6  2  0
  6  7  1  0
  7  8  2  0
  8  9  1  0
  9 10  1  0
  9 11  2  0
  2 12  1  0
 12 13  1  0
 13 14  1  0
 14 15  1  0
 15 16  1  0
 16 17  1  0
 17 18  1  0
 11  5  1  0
 18 14  1  0
M  END
>  <ChemBL_ID>  (930) 
CHEMBL151136

>  <Compound_Key>  (930) 
9

>  <Ki>  (930) 
59.8

>  <database>  (930) 
CHEMBL

>  <Assay_ChEMBL_ID>  (930) 
CHEMBL848651

>  <Document_ChEMBL_ID>  (930) 
CHEMBL1126607

$$$$

     RDKit          2D

 17 18  0  0  0  0  0  0  0  0999 V2000
   -0.1329   -3.7497    0.0000 C   0  0  0  0  0  0  0  0  0  0  0  0
    0.4135   -2.3528    0.0000 N   0  0  0  0  0  0  0  0  0  0  0  0
   -0.5232   -1.1812    0.0000 C   0  0  0  0  0  0  0  0  0  0  0  0
   -2.0062   -1.4065    0.0000 C   0  0  0  0  0  0  0  0  0  0  0  0
   -2.9428   -0.2349    0.0000 N   0  0  0  0  0  0  0  0  0  0  0  0
   -4.4412   -0.3040    0.0000 C   0  0  0  0  0  0  0  0  0  0  0  0
   -4.9700    1.0997    0.0000 C   0  0  0  0  0  0  0  0  0  0  0  0
   -3.7984    2.0363    0.0000 C   0  0  0  0  0  0  0  0  0  0  0  0
   -2.5455    1.2115    0.0000 C   0  0  0  0  0  0  0  0  0  0  0  0
    1.8964   -2.1274    0.0000 C   0  0  0  0  0  0  0  0  0  0  0  0
    2.4428   -0.7304    0.0000 C   0  0  0  0  0  0  0  0  0  0  0  0
    3.9257   -0.5051    0.0000 C   0  0  0  0  0  0  0  0  0  0  0  0
    4.4721    0.8919    0.0000 C   0  0  0  0  0  0  0  0  0  0  0  0
    3.5354    2.0635    0.0000 C   0  0  0  0  0  0  0  0  0  0  0  0
    2.0524    1.8381    0.0000 C   0  0  0  0  0  0  0  0  0  0  0  0
    1.1158    3.0098    0.0000 Br  0  0  0  0  0  0  0  0  0  0  0  0
    1.5061    0.4412    0.0000 C   0  0  0  0  0  0  0  0  0  0  0  0
  1  2  1  0
  2  3  1  0
  3  4  1  0
  4  5  1  0
  5  6  1  0
  6  7  1  0
  7  8  1  0
  8  9  1  0
  2 10  1  0
 10 11  1  0
 11 12  2  0
 12 13  1  0
 13 14  2  0
 14 15  1  0
 15 16  1  0
 15 17  2  0
  9  5  1  0
 17 11  1  0
M  END
>  <ChemBL_ID>  (931) 
CHEMBL152618

>  <Compound_Key>  (931) 
11

>  <Ki>  (931) 
220.0

>  <database>  (931) 
CHEMBL

>  <Assay_ChEMBL_ID>  (931) 
CHEMBL848651

>  <Document_ChEMBL_ID>  (931) 
CHEMBL1126607

$$$$

     RDKit          2D

 17 18  0  0  0  0  0  0  0  0999 V2000
   -0.1329   -3.7497    0.0000 C   0  0  0  0  0  0  0  0  0  0  0  0
    0.4135   -2.3528    0.0000 N   0  0  0  0  0  0  0  0  0  0  0  0
   -0.5232   -1.1812    0.0000 C   0  0  0  0  0  0  0  0  0  0  0  0
   -2.0062   -1.4065    0.0000 C   0  0  0  0  0  0  0  0  0  0  0  0
   -2.9428   -0.2349    0.0000 N   0  0  0  0  0  0  0  0  0  0  0  0
   -4.4412   -0.3040    0.0000 C   0  0  0  0  0  0  0  0  0  0  0  0
   -4.9700    1.0997    0.0000 C   0  0  0  0  0  0  0  0  0  0  0  0
   -3.7984    2.0363    0.0000 C   0  0  0  0  0  0  0  0  0  0  0  0
   -2.5455    1.2115    0.0000 C   0  0  0  0  0  0  0  0  0  0  0  0
    1.8964   -2.1274    0.0000 C   0  0  0  0  0  0  0  0  0  0  0  0
    2.4428   -0.7304    0.0000 C   0  0  0  0  0  0  0  0  0  0  0  0
    3.9257   -0.5051    0.0000 C   0  0  0  0  0  0  0  0  0  0  0  0
    4.4721    0.8919    0.0000 C   0  0  0  0  0  0  0  0  0  0  0  0
    3.5354    2.0635    0.0000 C   0  0  0  0  0  0  0  0  0  0  0  0
    2.0524    1.8381    0.0000 C   0  0  0  0  0  0  0  0  0  0  0  0
    1.1158    3.0098    0.0000 I   0  0  0  0  0  0  0  0  0  0  0  0
    1.5061    0.4412    0.0000 C   0  0  0  0  0  0  0  0  0  0  0  0
  1  2  1  0
  2  3  1  0
  3  4  1  0
  4  5  1  0
  5  6  1  0
  6  7  1  0
  7  8  1  0
  8  9  1  0
  2 10  1  0
 10 11  1  0
 11 12  2  0
 12 13  1  0
 13 14  2  0
 14 15  1  0
 15 16  1  0
 15 17  2  0
  9  5  1  0
 17 11  1  0
M  END
>  <ChemBL_ID>  (932) 
CHEMBL356909

>  <Compound_Key>  (932) 
5

>  <Ki>  (932) 
33.7

>  <database>  (932) 
CHEMBL

>  <Assay_ChEMBL_ID>  (932) 
CHEMBL848651

>  <Document_ChEMBL_ID>  (932) 
CHEMBL1126607

$$$$

     RDKit          2D

 18 19  0  0  0  0  0  0  0  0999 V2000
   -1.3301    3.2998    0.0000 C   0  0  0  0  0  0  0  0  0  0  0  0
   -0.8477    1.8794    0.0000 N   0  0  0  0  0  0  0  0  0  0  0  0
    0.6235    1.5871    0.0000 C   0  0  0  0  0  0  0  0  0  0  0  0
    1.1059    0.1667    0.0000 C   0  0  0  0  0  0  0  0  0  0  0  0
    2.5772   -0.1256    0.0000 C   0  0  0  0  0  0  0  0  0  0  0  0
    3.0596   -1.5460    0.0000 C   0  0  0  0  0  0  0  0  0  0  0  0
    4.5308   -1.8383    0.0000 C   0  0  0  0  0  0  0  0  0  0  0  0
    5.5196   -0.7104    0.0000 C   0  0  0  0  0  0  0  0  0  0  0  0
    6.9908   -1.0028    0.0000 F   0  0  0  0  0  0  0  0  0  0  0  0
    5.0372    0.7099    0.0000 C   0  0  0  0  0  0  0  0  0  0  0  0
    3.5660    1.0023    0.0000 C   0  0  0  0  0  0  0  0  0  0  0  0
   -1.8365    0.7515    0.0000 C   0  0  0  0  0  0  0  0  0  0  0  0
   -3.3077    1.0439    0.0000 C   0  0  0  0  0  0  0  0  0  0  0  0
   -4.2966   -0.0840    0.0000 N   0  0  0  0  0  0  0  0  0  0  0  0
   -3.9653   -1.5470    0.0000 C   0  0  0  0  0  0  0  0  0  0  0  0
   -5.2543   -2.3141    0.0000 C   0  0  0  0  0  0  0  0  0  0  0  0
   -6.3822   -1.3253    0.0000 C   0  0  0  0  0  0  0  0  0  0  0  0
   -5.7903    0.0530    0.0000 C   0  0  0  0  0  0  0  0  0  0  0  0
  1  2  1  0
  2  3  1  0
  3  4  1  0
  4  5  1  0
  5  6  2  0
  6  7  1  0
  7  8  2  0
  8  9  1  0
  8 10  1  0
 10 11  2  0
  2 12  1  0
 12 13  1  0
 13 14  1  0
 14 15  1  0
 15 16  1  0
 16 17  1  0
 17 18  1  0
 11  5  1  0
 18 14  1  0
M  END
>  <ChemBL_ID>  (933) 
CHEMBL153758

>  <Compound_Key>  (933) 
13

>  <Ki>  (933) 
124.0

>  <database>  (933) 
CHEMBL

>  <Assay_ChEMBL_ID>  (933) 
CHEMBL848651

>  <Document_ChEMBL_ID>  (933) 
CHEMBL1126607

$$$$

     RDKit          2D

 18 19  0  0  0  0  0  0  0  0999 V2000
   -1.0520    3.2241    0.0000 C   0  0  0  0  0  0  0  0  0  0  0  0
   -0.6708    1.7733    0.0000 N   0  0  0  0  0  0  0  0  0  0  0  0
    0.7761    1.3780    0.0000 C   0  0  0  0  0  0  0  0  0  0  0  0
    1.1573   -0.0728    0.0000 C   0  0  0  0  0  0  0  0  0  0  0  0
    2.6043   -0.4681    0.0000 C   0  0  0  0  0  0  0  0  0  0  0  0
    2.9854   -1.9189    0.0000 C   0  0  0  0  0  0  0  0  0  0  0  0
    4.4324   -2.3142    0.0000 C   0  0  0  0  0  0  0  0  0  0  0  0
    5.4982   -1.2587    0.0000 C   0  0  0  0  0  0  0  0  0  0  0  0
    5.1171    0.1921    0.0000 C   0  0  0  0  0  0  0  0  0  0  0  0
    6.1829    1.2475    0.0000 F   0  0  0  0  0  0  0  0  0  0  0  0
    3.6701    0.5874    0.0000 C   0  0  0  0  0  0  0  0  0  0  0  0
   -1.7367    0.7178    0.0000 C   0  0  0  0  0  0  0  0  0  0  0  0
   -3.1836    1.1131    0.0000 C   0  0  0  0  0  0  0  0  0  0  0  0
   -4.2495    0.0577    0.0000 N   0  0  0  0  0  0  0  0  0  0  0  0
   -4.0221   -1.4250    0.0000 C   0  0  0  0  0  0  0  0  0  0  0  0
   -5.3619   -2.0994    0.0000 C   0  0  0  0  0  0  0  0  0  0  0  0
   -6.4173   -1.0336    0.0000 C   0  0  0  0  0  0  0  0  0  0  0  0
   -5.7298    0.2996    0.0000 C   0  0  0  0  0  0  0  0  0  0  0  0
  1  2  1  0
  2  3  1  0
  3  4  1  0
  4  5  1  0
  5  6  2  0
  6  7  1  0
  7  8  2  0
  8  9  1  0
  9 10  1  0
  9 11  2  0
  2 12  1  0
 12 13  1  0
 13 14  1  0
 14 15  1  0
 15 16  1  0
 16 17  1  0
 17 18  1  0
 11  5  1  0
 18 14  1  0
M  END
>  <ChemBL_ID>  (934) 
CHEMBL152478

>  <Compound_Key>  (934) 
12

>  <Ki>  (934) 
103.6

>  <database>  (934) 
CHEMBL

>  <Assay_ChEMBL_ID>  (934) 
CHEMBL848651

>  <Document_ChEMBL_ID>  (934) 
CHEMBL1126607

$$$$

     RDKit          2D

 18 19  0  0  0  0  0  0  0  0999 V2000
   -1.0520    3.2241    0.0000 C   0  0  0  0  0  0  0  0  0  0  0  0
   -0.6708    1.7733    0.0000 N   0  0  0  0  0  0  0  0  0  0  0  0
    0.7761    1.3780    0.0000 C   0  0  0  0  0  0  0  0  0  0  0  0
    1.1573   -0.0728    0.0000 C   0  0  0  0  0  0  0  0  0  0  0  0
    2.6043   -0.4681    0.0000 C   0  0  0  0  0  0  0  0  0  0  0  0
    2.9854   -1.9189    0.0000 C   0  0  0  0  0  0  0  0  0  0  0  0
    4.4324   -2.3142    0.0000 C   0  0  0  0  0  0  0  0  0  0  0  0
    5.4982   -1.2587    0.0000 C   0  0  0  0  0  0  0  0  0  0  0  0
    5.1171    0.1921    0.0000 C   0  0  0  0  0  0  0  0  0  0  0  0
    6.1829    1.2475    0.0000 I   0  0  0  0  0  0  0  0  0  0  0  0
    3.6701    0.5874    0.0000 C   0  0  0  0  0  0  0  0  0  0  0  0
   -1.7367    0.7178    0.0000 C   0  0  0  0  0  0  0  0  0  0  0  0
   -3.1836    1.1131    0.0000 C   0  0  0  0  0  0  0  0  0  0  0  0
   -4.2495    0.0577    0.0000 N   0  0  0  0  0  0  0  0  0  0  0  0
   -4.0221   -1.4250    0.0000 C   0  0  0  0  0  0  0  0  0  0  0  0
   -5.3619   -2.0994    0.0000 C   0  0  0  0  0  0  0  0  0  0  0  0
   -6.4173   -1.0336    0.0000 C   0  0  0  0  0  0  0  0  0  0  0  0
   -5.7298    0.2996    0.0000 C   0  0  0  0  0  0  0  0  0  0  0  0
  1  2  1  0
  2  3  1  0
  3  4  1  0
  4  5  1  0
  5  6  2  0
  6  7  1  0
  7  8  2  0
  8  9  1  0
  9 10  1  0
  9 11  2  0
  2 12  1  0
 12 13  1  0
 13 14  1  0
 14 15  1  0
 15 16  1  0
 16 17  1  0
 17 18  1  0
 11  5  1  0
 18 14  1  0
M  END
>  <ChemBL_ID>  (935) 
CHEMBL152057

>  <Compound_Key>  (935) 
2

>  <Ki>  (935) 
9.1

>  <database>  (935) 
CHEMBL

>  <Assay_ChEMBL_ID>  (935) 
CHEMBL848651

>  <Document_ChEMBL_ID>  (935) 
CHEMBL1126607

$$$$

     RDKit          2D

 18 19  0  0  0  0  0  0  0  0999 V2000
   -1.3301    3.2998    0.0000 C   0  0  0  0  0  0  0  0  0  0  0  0
   -0.8477    1.8794    0.0000 N   0  0  0  0  0  0  0  0  0  0  0  0
    0.6235    1.5871    0.0000 C   0  0  0  0  0  0  0  0  0  0  0  0
    1.1059    0.1667    0.0000 C   0  0  0  0  0  0  0  0  0  0  0  0
    2.5772   -0.1256    0.0000 C   0  0  0  0  0  0  0  0  0  0  0  0
    3.0596   -1.5460    0.0000 C   0  0  0  0  0  0  0  0  0  0  0  0
    4.5308   -1.8383    0.0000 C   0  0  0  0  0  0  0  0  0  0  0  0
    5.5196   -0.7104    0.0000 C   0  0  0  0  0  0  0  0  0  0  0  0
    6.9908   -1.0028    0.0000 Cl  0  0  0  0  0  0  0  0  0  0  0  0
    5.0372    0.7099    0.0000 C   0  0  0  0  0  0  0  0  0  0  0  0
    3.5660    1.0023    0.0000 C   0  0  0  0  0  0  0  0  0  0  0  0
   -1.8365    0.7515    0.0000 C   0  0  0  0  0  0  0  0  0  0  0  0
   -3.3077    1.0439    0.0000 C   0  0  0  0  0  0  0  0  0  0  0  0
   -4.2966   -0.0840    0.0000 N   0  0  0  0  0  0  0  0  0  0  0  0
   -3.9653   -1.5470    0.0000 C   0  0  0  0  0  0  0  0  0  0  0  0
   -5.2543   -2.3141    0.0000 C   0  0  0  0  0  0  0  0  0  0  0  0
   -6.3822   -1.3253    0.0000 C   0  0  0  0  0  0  0  0  0  0  0  0
   -5.7903    0.0530    0.0000 C   0  0  0  0  0  0  0  0  0  0  0  0
  1  2  1  0
  2  3  1  0
  3  4  1  0
  4  5  1  0
  5  6  2  0
  6  7  1  0
  7  8  2  0
  8  9  1  0
  8 10  1  0
 10 11  2  0
  2 12  1  0
 12 13  1  0
 13 14  1  0
 14 15  1  0
 15 16  1  0
 16 17  1  0
 17 18  1  0
 11  5  1  0
 18 14  1  0
M  END
>  <ChemBL_ID>  (936) 
CHEMBL358109

>  <Compound_Key>  (936) 
15

>  <Ki>  (936) 
50.5

>  <database>  (936) 
CHEMBL

>  <Assay_ChEMBL_ID>  (936) 
CHEMBL848651

>  <Document_ChEMBL_ID>  (936) 
CHEMBL1126607

$$$$

     RDKit          2D

 17 18  0  0  0  0  0  0  0  0999 V2000
    0.0593   -3.5856    0.0000 C   0  0  0  0  0  0  0  0  0  0  0  0
    0.5555   -2.1700    0.0000 N   0  0  0  0  0  0  0  0  0  0  0  0
   -0.4224   -1.0325    0.0000 C   0  0  0  0  0  0  0  0  0  0  0  0
   -1.8964   -1.3106    0.0000 C   0  0  0  0  0  0  0  0  0  0  0  0
   -2.8742   -0.1731    0.0000 N   0  0  0  0  0  0  0  0  0  0  0  0
   -4.3692   -0.2956    0.0000 C   0  0  0  0  0  0  0  0  0  0  0  0
   -4.9477    1.0883    0.0000 C   0  0  0  0  0  0  0  0  0  0  0  0
   -3.8102    2.0662    0.0000 C   0  0  0  0  0  0  0  0  0  0  0  0
   -2.5287    1.2865    0.0000 C   0  0  0  0  0  0  0  0  0  0  0  0
    2.0295   -1.8919    0.0000 C   0  0  0  0  0  0  0  0  0  0  0  0
    2.5256   -0.4763    0.0000 C   0  0  0  0  0  0  0  0  0  0  0  0
    3.9996   -0.1982    0.0000 C   0  0  0  0  0  0  0  0  0  0  0  0
    4.4958    1.2173    0.0000 C   0  0  0  0  0  0  0  0  0  0  0  0
    3.5179    2.3548    0.0000 C   0  0  0  0  0  0  0  0  0  0  0  0
    2.0440    2.0767    0.0000 C   0  0  0  0  0  0  0  0  0  0  0  0
    1.5478    0.6611    0.0000 C   0  0  0  0  0  0  0  0  0  0  0  0
    0.0738    0.3830    0.0000 I   0  0  0  0  0  0  0  0  0  0  0  0
  1  2  1  0
  2  3  1  0
  3  4  1  0
  4  5  1  0
  5  6  1  0
  6  7  1  0
  7  8  1  0
  8  9  1  0
  2 10  1  0
 10 11  1  0
 11 12  2  0
 12 13  1  0
 13 14  2  0
 14 15  1  0
 15 16  2  0
 16 17  1  0
  9  5  1  0
 16 11  1  0
M  END
>  <ChemBL_ID>  (937) 
CHEMBL349793

>  <Compound_Key>  (937) 
4

>  <Ki>  (937) 
48.2

>  <database>  (937) 
CHEMBL

>  <Assay_ChEMBL_ID>  (937) 
CHEMBL848651

>  <Document_ChEMBL_ID>  (937) 
CHEMBL1126607

$$$$

     RDKit          2D

 18 19  0  0  0  0  0  0  0  0999 V2000
   -1.3301    3.2998    0.0000 C   0  0  0  0  0  0  0  0  0  0  0  0
   -0.8477    1.8794    0.0000 N   0  0  0  0  0  0  0  0  0  0  0  0
    0.6235    1.5871    0.0000 C   0  0  0  0  0  0  0  0  0  0  0  0
    1.1059    0.1667    0.0000 C   0  0  0  0  0  0  0  0  0  0  0  0
    2.5772   -0.1256    0.0000 C   0  0  0  0  0  0  0  0  0  0  0  0
    3.0596   -1.5460    0.0000 C   0  0  0  0  0  0  0  0  0  0  0  0
    4.5308   -1.8383    0.0000 C   0  0  0  0  0  0  0  0  0  0  0  0
    5.5196   -0.7104    0.0000 C   0  0  0  0  0  0  0  0  0  0  0  0
    6.9908   -1.0028    0.0000 I   0  0  0  0  0  0  0  0  0  0  0  0
    5.0372    0.7099    0.0000 C   0  0  0  0  0  0  0  0  0  0  0  0
    3.5660    1.0023    0.0000 C   0  0  0  0  0  0  0  0  0  0  0  0
   -1.8365    0.7515    0.0000 C   0  0  0  0  0  0  0  0  0  0  0  0
   -3.3077    1.0439    0.0000 C   0  0  0  0  0  0  0  0  0  0  0  0
   -4.2966   -0.0840    0.0000 N   0  0  0  0  0  0  0  0  0  0  0  0
   -3.9653   -1.5470    0.0000 C   0  0  0  0  0  0  0  0  0  0  0  0
   -5.2543   -2.3141    0.0000 C   0  0  0  0  0  0  0  0  0  0  0  0
   -6.3822   -1.3253    0.0000 C   0  0  0  0  0  0  0  0  0  0  0  0
   -5.7903    0.0530    0.0000 C   0  0  0  0  0  0  0  0  0  0  0  0
  1  2  1  0
  2  3  1  0
  3  4  1  0
  4  5  1  0
  5  6  2  0
  6  7  1  0
  7  8  2  0
  8  9  1  0
  8 10  1  0
 10 11  2  0
  2 12  1  0
 12 13  1  0
 13 14  1  0
 14 15  1  0
 15 16  1  0
 16 17  1  0
 17 18  1  0
 11  5  1  0
 18 14  1  0
M  END
>  <ChemBL_ID>  (938) 
CHEMBL152426

>  <Compound_Key>  (938) 
3

>  <Ki>  (938) 
43.1

>  <database>  (938) 
CHEMBL

>  <Assay_ChEMBL_ID>  (938) 
CHEMBL848651

>  <Document_ChEMBL_ID>  (938) 
CHEMBL1126607

$$$$

     RDKit          2D

 18 19  0  0  0  0  0  0  0  0999 V2000
   -3.9341   -2.4837    0.0000 C   0  0  0  0  0  0  0  0  0  0  0  0
   -3.8303   -0.9873    0.0000 C   0  0  0  0  0  0  0  0  0  0  0  0
   -5.0743   -0.1492    0.0000 C   0  0  0  0  0  0  0  0  0  0  0  0
   -4.9705    1.3472    0.0000 C   0  0  0  0  0  0  0  0  0  0  0  0
   -3.6227    2.0055    0.0000 C   0  0  0  0  0  0  0  0  0  0  0  0
   -2.3787    1.1674    0.0000 C   0  0  0  0  0  0  0  0  0  0  0  0
   -2.4825   -0.3290    0.0000 C   0  0  0  0  0  0  0  0  0  0  0  0
   -1.2384   -1.1671    0.0000 N   0  0  0  0  0  0  0  0  0  0  0  0
    0.1094   -0.5088    0.0000 C   0  0  0  0  0  0  0  0  0  0  0  0
    0.2132    0.9876    0.0000 N   0  0  0  0  0  0  0  0  0  0  0  0
    1.3534   -1.3469    0.0000 N   0  0  0  0  0  0  0  0  0  0  0  0
    2.7012   -0.6886    0.0000 C   0  0  0  0  0  0  0  0  0  0  0  0
    3.9453   -1.5267    0.0000 C   0  0  0  0  0  0  0  0  0  0  0  0
    5.2931   -0.8684    0.0000 C   0  0  0  0  0  0  0  0  0  0  0  0
    5.3969    0.6280    0.0000 C   0  0  0  0  0  0  0  0  0  0  0  0
    4.1529    1.4661    0.0000 C   0  0  0  0  0  0  0  0  0  0  0  0
    2.8050    0.8078    0.0000 C   0  0  0  0  0  0  0  0  0  0  0  0
    1.5610    1.6459    0.0000 C   0  0  0  0  0  0  0  0  0  0  0  0
  1  2  1  0
  2  3  2  0
  3  4  1  0
  4  5  2  0
  5  6  1  0
  6  7  2  0
  7  8  1  0
  8  9  1  0
  9 10  2  0
  9 11  1  0
 11 12  1  0
 12 13  2  0
 13 14  1  0
 14 15  2  0
 15 16  1  0
 16 17  2  0
 17 18  1  0
  7  2  1  0
 17 12  1  0
M  END
>  <ChemBL_ID>  (939) 
CHEMBL282433

>  <Compound_Key>  (939) 
Ditolylguanidine

>  <Ki>  (939) 
32.3

>  <database>  (939) 
CHEMBL

>  <Assay_ChEMBL_ID>  (939) 
CHEMBL860171

>  <Document_ChEMBL_ID>  (939) 
CHEMBL1141188

$$$$

     RDKit          2D

 22 24  0  0  0  0  0  0  0  0999 V2000
    7.2597   -2.4155    0.0000 C   0  0  0  0  0  0  0  0  0  0  0  0
    6.8680   -0.9675    0.0000 O   0  0  0  0  0  0  0  0  0  0  0  0
    5.4182   -0.5827    0.0000 C   0  0  0  0  0  0  0  0  0  0  0  0
    4.3600   -1.6459    0.0000 C   0  0  0  0  0  0  0  0  0  0  0  0
    2.9102   -1.2611    0.0000 C   0  0  0  0  0  0  0  0  0  0  0  0
    2.5186    0.1868    0.0000 C   0  0  0  0  0  0  0  0  0  0  0  0
    3.5767    1.2500    0.0000 C   0  0  0  0  0  0  0  0  0  0  0  0
    5.0265    0.8652    0.0000 C   0  0  0  0  0  0  0  0  0  0  0  0
    3.1850    2.6980    0.0000 C   0  0  0  0  0  0  0  0  0  0  0  0
    1.7352    3.0828    0.0000 C   0  0  0  0  0  0  0  0  0  0  0  0
    0.6771    2.0196    0.0000 C   0  0  0  0  0  0  0  0  0  0  0  0
    1.0688    0.5716    0.0000 C   0  0  0  0  0  0  0  0  0  0  0  0
    0.0106   -0.4916    0.0000 C   0  0  0  0  0  0  0  0  0  0  0  0
   -1.4392   -0.1068    0.0000 C   0  0  0  0  0  0  0  0  0  0  0  0
   -2.4973   -1.1699    0.0000 C   0  0  0  0  0  0  0  0  0  0  0  0
   -3.9471   -0.7852    0.0000 N   0  0  0  0  0  0  0  0  0  0  0  0
   -4.3388    0.6628    0.0000 C   0  0  0  0  0  0  0  0  0  0  0  0
   -5.7886    1.0476    0.0000 C   0  0  0  0  0  0  0  0  0  0  0  0
   -6.8467   -0.0156    0.0000 C   0  0  0  0  0  0  0  0  0  0  0  0
   -8.2965    0.3692    0.0000 C   0  0  0  0  0  0  0  0  0  0  0  0
   -6.4551   -1.4636    0.0000 C   0  0  0  0  0  0  0  0  0  0  0  0
   -5.0053   -1.8483    0.0000 C   0  0  0  0  0  0  0  0  0  0  0  0
  1  2  1  0
  2  3  1  0
  3  4  2  0
  4  5  1  0
  5  6  2  0
  6  7  1  0
  7  8  2  0
  7  9  1  0
  9 10  1  0
 10 11  1  0
 11 12  1  0
 12 13  1  0
 13 14  1  0
 14 15  1  0
 15 16  1  0
 16 17  1  0
 17 18  1  0
 18 19  1  0
 19 20  1  0
 19 21  1  0
 21 22  1  0
  8  3  1  0
 22 16  1  0
 12  6  1  0
M  END
>  <ChemBL_ID>  (940) 
CHEMBL534695

>  <Compound_Key>  (940) 
12.HCl

>  <Ki>  (940) 
31.4

>  <database>  (940) 
CHEMBL

>  <Assay_ChEMBL_ID>  (940) 
CHEMBL860171

>  <Document_ChEMBL_ID>  (940) 
CHEMBL1141188

$$$$

     RDKit          2D

 23 25  0  0  0  0  0  0  0  0999 V2000
    7.5952   -2.4102    0.0000 C   0  0  0  0  0  0  0  0  0  0  0  0
    7.2009   -0.9630    0.0000 O   0  0  0  0  0  0  0  0  0  0  0  0
    5.7504   -0.5808    0.0000 C   0  0  0  0  0  0  0  0  0  0  0  0
    4.6942   -1.6458    0.0000 C   0  0  0  0  0  0  0  0  0  0  0  0
    3.2437   -1.2636    0.0000 C   0  0  0  0  0  0  0  0  0  0  0  0
    2.8495    0.1837    0.0000 C   0  0  0  0  0  0  0  0  0  0  0  0
    3.9057    1.2487    0.0000 C   0  0  0  0  0  0  0  0  0  0  0  0
    5.3562    0.8665    0.0000 C   0  0  0  0  0  0  0  0  0  0  0  0
    3.5115    2.6960    0.0000 C   0  0  0  0  0  0  0  0  0  0  0  0
    2.0610    3.0782    0.0000 C   0  0  0  0  0  0  0  0  0  0  0  0
    1.0048    2.0131    0.0000 C   0  0  0  0  0  0  0  0  0  0  0  0
    1.3990    0.5659    0.0000 C   0  0  0  0  0  0  0  0  0  0  0  0
    0.3427   -0.4992    0.0000 C   0  0  0  0  0  0  0  0  0  0  0  0
   -1.1078   -0.1170    0.0000 C   0  0  0  0  0  0  0  0  0  0  0  0
   -2.1640   -1.1820    0.0000 C   0  0  0  0  0  0  0  0  0  0  0  0
   -3.6145   -0.7998    0.0000 N   0  0  0  0  0  0  0  0  0  0  0  0
   -4.0087    0.6475    0.0000 C   0  0  0  0  0  0  0  0  0  0  0  0
   -5.4592    1.0297    0.0000 C   0  0  0  0  0  0  0  0  0  0  0  0
   -6.5155   -0.0354    0.0000 C   0  0  0  0  0  0  0  0  0  0  0  0
   -7.8723   -0.6749    0.0000 C   0  0  0  0  0  0  0  0  0  0  0  0
   -7.3809    1.1898    0.0000 C   0  0  0  0  0  0  0  0  0  0  0  0
   -6.1212   -1.4826    0.0000 C   0  0  0  0  0  0  0  0  0  0  0  0
   -4.6707   -1.8648    0.0000 C   0  0  0  0  0  0  0  0  0  0  0  0
  1  2  1  0
  2  3  1  0
  3  4  2  0
  4  5  1  0
  5  6  2  0
  6  7  1  0
  7  8  2  0
  7  9  1  0
  9 10  1  0
 10 11  1  0
 11 12  1  0
 12 13  1  0
 13 14  1  0
 14 15  1  0
 15 16  1  0
 16 17  1  0
 17 18  1  0
 18 19  1  0
 19 20  1  0
 19 21  1  0
 19 22  1  0
 22 23  1  0
  8  3  1  0
 23 16  1  0
 12  6  1  0
M  END
>  <ChemBL_ID>  (941) 
CHEMBL538566

>  <Compound_Key>  (941) 
15.HCl

>  <Ki>  (941) 
31.4

>  <database>  (941) 
CHEMBL

>  <Assay_ChEMBL_ID>  (941) 
CHEMBL860171

>  <Document_ChEMBL_ID>  (941) 
CHEMBL1141188

$$$$

     RDKit          2D

 24 26  0  0  0  0  0  0  0  0999 V2000
    7.1740   -3.5828    0.0000 C   0  0  0  0  0  0  0  0  0  0  0  0
    7.2206   -2.0835    0.0000 O   0  0  0  0  0  0  0  0  0  0  0  0
    5.9454   -1.2935    0.0000 C   0  0  0  0  0  0  0  0  0  0  0  0
    4.6237   -2.0029    0.0000 C   0  0  0  0  0  0  0  0  0  0  0  0
    3.3486   -1.2129    0.0000 C   0  0  0  0  0  0  0  0  0  0  0  0
    3.3952    0.2864    0.0000 C   0  0  0  0  0  0  0  0  0  0  0  0
    4.7169    0.9957    0.0000 C   0  0  0  0  0  0  0  0  0  0  0  0
    5.9920    0.2057    0.0000 C   0  0  0  0  0  0  0  0  0  0  0  0
    4.7634    2.4950    0.0000 C   0  0  0  0  0  0  0  0  0  0  0  0
    3.4883    3.2849    0.0000 C   0  0  0  0  0  0  0  0  0  0  0  0
    2.1666    2.5756    0.0000 C   0  0  0  0  0  0  0  0  0  0  0  0
    2.1200    1.0763    0.0000 C   0  0  0  0  0  0  0  0  0  0  0  0
    0.7983    0.3670    0.0000 C   0  0  0  0  0  0  0  0  0  0  0  0
   -0.4768    1.1570    0.0000 C   0  0  0  0  0  0  0  0  0  0  0  0
   -1.7985    0.4477    0.0000 C   0  0  0  0  0  0  0  0  0  0  0  0
   -3.0736    1.2376    0.0000 C   0  0  0  0  0  0  0  0  0  0  0  0
   -4.3953    0.5283    0.0000 N   0  0  0  0  0  0  0  0  0  0  0  0
   -5.6704    1.3183    0.0000 C   0  0  0  0  0  0  0  0  0  0  0  0
   -6.9921    0.6090    0.0000 C   0  0  0  0  0  0  0  0  0  0  0  0
   -7.0387   -0.8903    0.0000 C   0  0  0  0  0  0  0  0  0  0  0  0
   -7.5952   -2.2833    0.0000 C   0  0  0  0  0  0  0  0  0  0  0  0
   -8.5071   -0.5841    0.0000 C   0  0  0  0  0  0  0  0  0  0  0  0
   -5.7635   -1.6803    0.0000 C   0  0  0  0  0  0  0  0  0  0  0  0
   -4.4419   -0.9710    0.0000 C   0  0  0  0  0  0  0  0  0  0  0  0
  1  2  1  0
  2  3  1  0
  3  4  2  0
  4  5  1  0
  5  6  2  0
  6  7  1  0
  7  8  2  0
  7  9  1  0
  9 10  1  0
 10 11  1  0
 11 12  1  0
 12 13  1  0
 13 14  1  0
 14 15  1  0
 15 16  1  0
 16 17  1  0
 17 18  1  0
 18 19  1  0
 19 20  1  0
 20 21  1  0
 20 22  1  0
 20 23  1  0
 23 24  1  0
  8  3  1  0
 24 17  1  0
 12  6  1  0
M  END
>  <ChemBL_ID>  (942) 
CHEMBL540818

>  <Compound_Key>  (942) 
20.HCl

>  <Ki>  (942) 
17.5

>  <database>  (942) 
CHEMBL

>  <Assay_ChEMBL_ID>  (942) 
CHEMBL860171

>  <Document_ChEMBL_ID>  (942) 
CHEMBL1141188

$$$$

     RDKit          2D

 23 25  0  0  0  0  0  0  0  0999 V2000
    7.5952   -2.4102    0.0000 C   0  0  0  0  0  0  0  0  0  0  0  0
    7.2009   -0.9630    0.0000 O   0  0  0  0  0  0  0  0  0  0  0  0
    5.7504   -0.5808    0.0000 C   0  0  0  0  0  0  0  0  0  0  0  0
    4.6942   -1.6458    0.0000 C   0  0  0  0  0  0  0  0  0  0  0  0
    3.2437   -1.2636    0.0000 C   0  0  0  0  0  0  0  0  0  0  0  0
    2.8495    0.1837    0.0000 C   0  0  0  0  0  0  0  0  0  0  0  0
    1.3990    0.5659    0.0000 C   0  0  0  0  0  0  0  0  0  0  0  0
    0.3427   -0.4992    0.0000 C   0  0  0  0  0  0  0  0  0  0  0  0
   -1.1078   -0.1170    0.0000 C   0  0  0  0  0  0  0  0  0  0  0  0
   -2.1640   -1.1820    0.0000 C   0  0  0  0  0  0  0  0  0  0  0  0
   -3.6145   -0.7998    0.0000 N   0  0  0  0  0  0  0  0  0  0  0  0
   -4.0087    0.6475    0.0000 C   0  0  0  0  0  0  0  0  0  0  0  0
   -5.4592    1.0297    0.0000 C   0  0  0  0  0  0  0  0  0  0  0  0
   -6.5155   -0.0354    0.0000 C   0  0  0  0  0  0  0  0  0  0  0  0
   -7.8723   -0.6749    0.0000 C   0  0  0  0  0  0  0  0  0  0  0  0
   -7.3809    1.1898    0.0000 C   0  0  0  0  0  0  0  0  0  0  0  0
   -6.1212   -1.4826    0.0000 C   0  0  0  0  0  0  0  0  0  0  0  0
   -4.6707   -1.8648    0.0000 C   0  0  0  0  0  0  0  0  0  0  0  0
    1.0048    2.0131    0.0000 C   0  0  0  0  0  0  0  0  0  0  0  0
    2.0610    3.0782    0.0000 C   0  0  0  0  0  0  0  0  0  0  0  0
    3.5115    2.6960    0.0000 C   0  0  0  0  0  0  0  0  0  0  0  0
    3.9057    1.2487    0.0000 C   0  0  0  0  0  0  0  0  0  0  0  0
    5.3562    0.8665    0.0000 C   0  0  0  0  0  0  0  0  0  0  0  0
  1  2  1  0
  2  3  1  0
  3  4  2  0
  4  5  1  0
  5  6  2  0
  6  7  1  0
  7  8  1  0
  8  9  1  0
  9 10  1  0
 10 11  1  0
 11 12  1  0
 12 13  1  0
 13 14  1  0
 14 15  1  0
 14 16  1  0
 14 17  1  0
 17 18  1  0
  7 19  2  0
 19 20  1  0
 20 21  2  0
 21 22  1  0
 22 23  2  0
 23  3  1  0
 22  6  1  0
 18 11  1  0
M  END
>  <ChemBL_ID>  (943) 
CHEMBL536483

>  <Compound_Key>  (943) 
27.HCl

>  <Ki>  (943) 
26.3

>  <database>  (943) 
CHEMBL

>  <Assay_ChEMBL_ID>  (943) 
CHEMBL860171

>  <Document_ChEMBL_ID>  (943) 
CHEMBL1141188

$$$$

     RDKit          2D

 22 24  0  0  0  0  0  0  0  0999 V2000
    7.0914   -2.6674    0.0000 C   0  0  0  0  0  0  0  0  0  0  0  0
    6.7778   -1.2006    0.0000 O   0  0  0  0  0  0  0  0  0  0  0  0
    5.3507   -0.7387    0.0000 C   0  0  0  0  0  0  0  0  0  0  0  0
    4.2371   -1.7437    0.0000 C   0  0  0  0  0  0  0  0  0  0  0  0
    2.8100   -1.2818    0.0000 C   0  0  0  0  0  0  0  0  0  0  0  0
    2.4965    0.1851    0.0000 C   0  0  0  0  0  0  0  0  0  0  0  0
    1.0693    0.6469    0.0000 C   0  0  0  0  0  0  0  0  0  0  0  0
   -0.0442   -0.3581    0.0000 C   0  0  0  0  0  0  0  0  0  0  0  0
   -1.4713    0.1038    0.0000 C   0  0  0  0  0  0  0  0  0  0  0  0
   -2.5849   -0.9012    0.0000 C   0  0  0  0  0  0  0  0  0  0  0  0
   -4.0120   -0.4393    0.0000 N   0  0  0  0  0  0  0  0  0  0  0  0
   -4.3256    1.0276    0.0000 C   0  0  0  0  0  0  0  0  0  0  0  0
   -5.7527    1.4894    0.0000 C   0  0  0  0  0  0  0  0  0  0  0  0
   -6.8663    0.4844    0.0000 C   0  0  0  0  0  0  0  0  0  0  0  0
   -6.5527   -0.9824    0.0000 C   0  0  0  0  0  0  0  0  0  0  0  0
   -7.6662   -1.9874    0.0000 C   0  0  0  0  0  0  0  0  0  0  0  0
   -5.1256   -1.4443    0.0000 C   0  0  0  0  0  0  0  0  0  0  0  0
    0.7558    2.1138    0.0000 C   0  0  0  0  0  0  0  0  0  0  0  0
    1.8693    3.1188    0.0000 C   0  0  0  0  0  0  0  0  0  0  0  0
    3.2964    2.6569    0.0000 C   0  0  0  0  0  0  0  0  0  0  0  0
    3.6100    1.1900    0.0000 C   0  0  0  0  0  0  0  0  0  0  0  0
    5.0371    0.7282    0.0000 C   0  0  0  0  0  0  0  0  0  0  0  0
  1  2  1  0
  2  3  1  0
  3  4  2  0
  4  5  1  0
  5  6  2  0
  6  7  1  0
  7  8  1  0
  8  9  1  0
  9 10  1  0
 10 11  1  0
 11 12  1  0
 12 13  1  0
 13 14  1  0
 14 15  1  0
 15 16  1  1
 15 17  1  0
  7 18  2  0
 18 19  1  0
 19 20  2  0
 20 21  1  0
 21 22  2  0
 22  3  1  0
 21  6  1  0
 17 11  1  0
M  END
>  <ChemBL_ID>  (944) 
CHEMBL554663

>  <Compound_Key>  (944) 
(+)-(S)-23.HCl

>  <Ki>  (944) 
59.3

>  <database>  (944) 
CHEMBL

>  <Assay_ChEMBL_ID>  (944) 
CHEMBL860171

>  <Document_ChEMBL_ID>  (944) 
CHEMBL1141188

$$$$

     RDKit          2D

 23 25  0  0  0  0  0  0  0  0999 V2000
    6.9035   -3.5108    0.0000 C   0  0  0  0  0  0  0  0  0  0  0  0
    6.9223   -2.0109    0.0000 O   0  0  0  0  0  0  0  0  0  0  0  0
    5.6328   -1.2447    0.0000 C   0  0  0  0  0  0  0  0  0  0  0  0
    4.3245   -1.9783    0.0000 C   0  0  0  0  0  0  0  0  0  0  0  0
    3.0349   -1.2121    0.0000 C   0  0  0  0  0  0  0  0  0  0  0  0
    3.0538    0.2878    0.0000 C   0  0  0  0  0  0  0  0  0  0  0  0
    1.7642    1.0540    0.0000 C   0  0  0  0  0  0  0  0  0  0  0  0
    0.4559    0.3204    0.0000 C   0  0  0  0  0  0  0  0  0  0  0  0
   -0.8336    1.0866    0.0000 C   0  0  0  0  0  0  0  0  0  0  0  0
   -2.1420    0.3530    0.0000 C   0  0  0  0  0  0  0  0  0  0  0  0
   -3.4315    1.1192    0.0000 C   0  0  0  0  0  0  0  0  0  0  0  0
   -4.7398    0.3856    0.0000 N   0  0  0  0  0  0  0  0  0  0  0  0
   -6.0294    1.1518    0.0000 C   0  0  0  0  0  0  0  0  0  0  0  0
   -7.3377    0.4182    0.0000 C   0  0  0  0  0  0  0  0  0  0  0  0
   -7.3565   -1.0817    0.0000 C   0  0  0  0  0  0  0  0  0  0  0  0
   -8.6649   -1.8153    0.0000 C   0  0  0  0  0  0  0  0  0  0  0  0
   -6.0670   -1.8479    0.0000 C   0  0  0  0  0  0  0  0  0  0  0  0
   -4.7587   -1.1143    0.0000 C   0  0  0  0  0  0  0  0  0  0  0  0
    1.7831    2.5539    0.0000 C   0  0  0  0  0  0  0  0  0  0  0  0
    3.0914    3.2876    0.0000 C   0  0  0  0  0  0  0  0  0  0  0  0
    4.3809    2.5213    0.0000 C   0  0  0  0  0  0  0  0  0  0  0  0
    4.3621    1.0214    0.0000 C   0  0  0  0  0  0  0  0  0  0  0  0
    5.6516    0.2552    0.0000 C   0  0  0  0  0  0  0  0  0  0  0  0
  1  2  1  0
  2  3  1  0
  3  4  2  0
  4  5  1  0
  5  6  2  0
  6  7  1  0
  7  8  1  0
  8  9  1  0
  9 10  1  0
 10 11  1  0
 11 12  1  0
 12 13  1  0
 13 14  1  0
 14 15  1  0
 15 16  1  0
 15 17  1  0
 17 18  1  0
  7 19  2  0
 19 20  1  0
 20 21  2  0
 21 22  1  0
 22 23  2  0
 23  3  1  0
 22  6  1  0
 18 12  1  0
M  END
>  <ChemBL_ID>  (945) 
CHEMBL545278

>  <Compound_Key>  (945) 
31.HCl

>  <Ki>  (945) 
17.9

>  <database>  (945) 
CHEMBL

>  <Assay_ChEMBL_ID>  (945) 
CHEMBL860171

>  <Document_ChEMBL_ID>  (945) 
CHEMBL1141188

$$$$

     RDKit          2D

 24 26  0  0  0  0  0  0  0  0999 V2000
    7.1740   -3.5828    0.0000 C   0  0  0  0  0  0  0  0  0  0  0  0
    7.2206   -2.0835    0.0000 O   0  0  0  0  0  0  0  0  0  0  0  0
    5.9454   -1.2935    0.0000 C   0  0  0  0  0  0  0  0  0  0  0  0
    4.6237   -2.0029    0.0000 C   0  0  0  0  0  0  0  0  0  0  0  0
    3.3486   -1.2129    0.0000 C   0  0  0  0  0  0  0  0  0  0  0  0
    3.3952    0.2864    0.0000 C   0  0  0  0  0  0  0  0  0  0  0  0
    2.1200    1.0763    0.0000 C   0  0  0  0  0  0  0  0  0  0  0  0
    0.7983    0.3670    0.0000 C   0  0  0  0  0  0  0  0  0  0  0  0
   -0.4768    1.1570    0.0000 C   0  0  0  0  0  0  0  0  0  0  0  0
   -1.7985    0.4477    0.0000 C   0  0  0  0  0  0  0  0  0  0  0  0
   -3.0736    1.2376    0.0000 C   0  0  0  0  0  0  0  0  0  0  0  0
   -4.3953    0.5283    0.0000 N   0  0  0  0  0  0  0  0  0  0  0  0
   -5.6704    1.3183    0.0000 C   0  0  0  0  0  0  0  0  0  0  0  0
   -6.9921    0.6090    0.0000 C   0  0  0  0  0  0  0  0  0  0  0  0
   -7.0387   -0.8903    0.0000 C   0  0  0  0  0  0  0  0  0  0  0  0
   -7.5952   -2.2833    0.0000 C   0  0  0  0  0  0  0  0  0  0  0  0
   -8.5071   -0.5841    0.0000 C   0  0  0  0  0  0  0  0  0  0  0  0
   -5.7635   -1.6803    0.0000 C   0  0  0  0  0  0  0  0  0  0  0  0
   -4.4419   -0.9710    0.0000 C   0  0  0  0  0  0  0  0  0  0  0  0
    2.1666    2.5756    0.0000 C   0  0  0  0  0  0  0  0  0  0  0  0
    3.4883    3.2849    0.0000 C   0  0  0  0  0  0  0  0  0  0  0  0
    4.7634    2.4950    0.0000 C   0  0  0  0  0  0  0  0  0  0  0  0
    4.7169    0.9957    0.0000 C   0  0  0  0  0  0  0  0  0  0  0  0
    5.9920    0.2057    0.0000 C   0  0  0  0  0  0  0  0  0  0  0  0
  1  2  1  0
  2  3  1  0
  3  4  2  0
  4  5  1  0
  5  6  2  0
  6  7  1  0
  7  8  1  0
  8  9  1  0
  9 10  1  0
 10 11  1  0
 11 12  1  0
 12 13  1  0
 13 14  1  0
 14 15  1  0
 15 16  1  0
 15 17  1  0
 15 18  1  0
 18 19  1  0
  7 20  2  0
 20 21  1  0
 21 22  2  0
 22 23  1  0
 23 24  2  0
 24  3  1  0
 23  6  1  0
 19 12  1  0
M  END
>  <ChemBL_ID>  (946) 
CHEMBL540563

>  <Compound_Key>  (946) 
34.HCl

>  <Ki>  (946) 
17.9

>  <database>  (946) 
CHEMBL

>  <Assay_ChEMBL_ID>  (946) 
CHEMBL860171

>  <Document_ChEMBL_ID>  (946) 
CHEMBL1141188

$$$$

     RDKit          2D

 22 24  0  0  0  0  0  0  0  0999 V2000
    6.6416   -3.3431    0.0000 C   0  0  0  0  0  0  0  0  0  0  0  0
    6.6034   -1.8436    0.0000 O   0  0  0  0  0  0  0  0  0  0  0  0
    5.2857   -1.1270    0.0000 C   0  0  0  0  0  0  0  0  0  0  0  0
    4.0062   -1.9098    0.0000 C   0  0  0  0  0  0  0  0  0  0  0  0
    2.6884   -1.1932    0.0000 C   0  0  0  0  0  0  0  0  0  0  0  0
    2.6502    0.3063    0.0000 C   0  0  0  0  0  0  0  0  0  0  0  0
    3.9297    1.0892    0.0000 C   0  0  0  0  0  0  0  0  0  0  0  0
    5.2474    0.3726    0.0000 C   0  0  0  0  0  0  0  0  0  0  0  0
    3.8914    2.5887    0.0000 C   0  0  0  0  0  0  0  0  0  0  0  0
    2.5737    3.3053    0.0000 C   0  0  0  0  0  0  0  0  0  0  0  0
    1.2942    2.5225    0.0000 C   0  0  0  0  0  0  0  0  0  0  0  0
    1.3324    1.0229    0.0000 C   0  0  0  0  0  0  0  0  0  0  0  0
    0.0529    0.2401    0.0000 C   0  0  0  0  0  0  0  0  0  0  0  0
   -1.2648    0.9567    0.0000 C   0  0  0  0  0  0  0  0  0  0  0  0
   -2.5443    0.1738    0.0000 C   0  0  0  0  0  0  0  0  0  0  0  0
   -3.8620    0.8905    0.0000 C   0  0  0  0  0  0  0  0  0  0  0  0
   -5.1415    0.1076    0.0000 N   0  0  0  0  0  0  0  0  0  0  0  0
   -6.4593    0.8242    0.0000 C   0  0  0  0  0  0  0  0  0  0  0  0
   -7.7388    0.0413    0.0000 C   0  0  0  0  0  0  0  0  0  0  0  0
   -7.7005   -1.4582    0.0000 C   0  0  0  0  0  0  0  0  0  0  0  0
   -6.3828   -2.1748    0.0000 C   0  0  0  0  0  0  0  0  0  0  0  0
   -5.1033   -1.3919    0.0000 C   0  0  0  0  0  0  0  0  0  0  0  0
  1  2  1  0
  2  3  1  0
  3  4  2  0
  4  5  1  0
  5  6  2  0
  6  7  1  0
  7  8  2  0
  7  9  1  0
  9 10  1  0
 10 11  1  0
 11 12  1  0
 12 13  1  0
 13 14  1  0
 14 15  1  0
 15 16  1  0
 16 17  1  0
 17 18  1  0
 18 19  1  0
 19 20  1  0
 20 21  1  0
 21 22  1  0
  8  3  1  0
 22 17  1  0
 12  6  1  0
M  END
>  <ChemBL_ID>  (947) 
CHEMBL537842

>  <Compound_Key>  (947) 
16.HCl

>  <Ki>  (947) 
48.7

>  <database>  (947) 
CHEMBL

>  <Assay_ChEMBL_ID>  (947) 
CHEMBL860171

>  <Document_ChEMBL_ID>  (947) 
CHEMBL1141188

$$$$

     RDKit          2D

 23 25  0  0  0  0  0  0  0  0999 V2000
    6.7550   -3.5151    0.0000 C   0  0  0  0  0  0  0  0  0  0  0  0
    6.7895   -2.0155    0.0000 O   0  0  0  0  0  0  0  0  0  0  0  0
    5.5081   -1.2358    0.0000 C   0  0  0  0  0  0  0  0  0  0  0  0
    4.1921   -1.9557    0.0000 C   0  0  0  0  0  0  0  0  0  0  0  0
    2.9107   -1.1760    0.0000 C   0  0  0  0  0  0  0  0  0  0  0  0
    2.9452    0.3236    0.0000 C   0  0  0  0  0  0  0  0  0  0  0  0
    1.6637    1.1033    0.0000 C   0  0  0  0  0  0  0  0  0  0  0  0
    0.3478    0.3834    0.0000 C   0  0  0  0  0  0  0  0  0  0  0  0
   -0.9336    1.1631    0.0000 C   0  0  0  0  0  0  0  0  0  0  0  0
   -2.2496    0.4432    0.0000 C   0  0  0  0  0  0  0  0  0  0  0  0
   -3.5310    1.2229    0.0000 C   0  0  0  0  0  0  0  0  0  0  0  0
   -4.8470    0.5030    0.0000 N   0  0  0  0  0  0  0  0  0  0  0  0
   -6.1284    1.2827    0.0000 C   0  0  0  0  0  0  0  0  0  0  0  0
   -7.4444    0.5627    0.0000 C   0  0  0  0  0  0  0  0  0  0  0  0
   -7.4789   -0.9369    0.0000 C   0  0  0  0  0  0  0  0  0  0  0  0
   -6.1974   -1.7166    0.0000 C   0  0  0  0  0  0  0  0  0  0  0  0
   -6.2320   -3.2162    0.0000 C   0  0  0  0  0  0  0  0  0  0  0  0
   -4.8815   -0.9966    0.0000 C   0  0  0  0  0  0  0  0  0  0  0  0
    1.6983    2.6029    0.0000 C   0  0  0  0  0  0  0  0  0  0  0  0
    3.0142    3.3228    0.0000 C   0  0  0  0  0  0  0  0  0  0  0  0
    4.2956    2.5431    0.0000 C   0  0  0  0  0  0  0  0  0  0  0  0
    4.2611    1.0435    0.0000 C   0  0  0  0  0  0  0  0  0  0  0  0
    5.5426    0.2638    0.0000 C   0  0  0  0  0  0  0  0  0  0  0  0
  1  2  1  0
  2  3  1  0
  3  4  2  0
  4  5  1  0
  5  6  2  0
  6  7  1  0
  7  8  1  0
  8  9  1  0
  9 10  1  0
 10 11  1  0
 11 12  1  0
 12 13  1  0
 13 14  1  0
 14 15  1  0
 15 16  1  0
 16 17  1  1
 16 18  1  0
  7 19  2  0
 19 20  1  0
 20 21  2  0
 21 22  1  0
 22 23  2  0
 23  3  1  0
 22  6  1  0
 18 12  1  0
M  END
>  <ChemBL_ID>  (948) 
CHEMBL545508

>  <Compound_Key>  (948) 
(+)-(S)-30.HCl

>  <Ki>  (948) 
32.7

>  <database>  (948) 
CHEMBL

>  <Assay_ChEMBL_ID>  (948) 
CHEMBL860171

>  <Document_ChEMBL_ID>  (948) 
CHEMBL1141188

$$$$

     RDKit          2D

 22 24  0  0  0  0  0  0  0  0999 V2000
    7.2597   -2.4155    0.0000 C   0  0  0  0  0  0  0  0  0  0  0  0
    6.8680   -0.9675    0.0000 O   0  0  0  0  0  0  0  0  0  0  0  0
    5.4182   -0.5827    0.0000 C   0  0  0  0  0  0  0  0  0  0  0  0
    4.3600   -1.6459    0.0000 C   0  0  0  0  0  0  0  0  0  0  0  0
    2.9102   -1.2611    0.0000 C   0  0  0  0  0  0  0  0  0  0  0  0
    2.5186    0.1868    0.0000 C   0  0  0  0  0  0  0  0  0  0  0  0
    1.0688    0.5716    0.0000 C   0  0  0  0  0  0  0  0  0  0  0  0
    0.0106   -0.4916    0.0000 C   0  0  0  0  0  0  0  0  0  0  0  0
   -1.4392   -0.1068    0.0000 C   0  0  0  0  0  0  0  0  0  0  0  0
   -2.4973   -1.1699    0.0000 C   0  0  0  0  0  0  0  0  0  0  0  0
   -3.9471   -0.7852    0.0000 N   0  0  0  0  0  0  0  0  0  0  0  0
   -4.3388    0.6628    0.0000 C   0  0  0  0  0  0  0  0  0  0  0  0
   -5.7886    1.0476    0.0000 C   0  0  0  0  0  0  0  0  0  0  0  0
   -6.8467   -0.0156    0.0000 C   0  0  0  0  0  0  0  0  0  0  0  0
   -8.2965    0.3692    0.0000 C   0  0  0  0  0  0  0  0  0  0  0  0
   -6.4551   -1.4636    0.0000 C   0  0  0  0  0  0  0  0  0  0  0  0
   -5.0053   -1.8483    0.0000 C   0  0  0  0  0  0  0  0  0  0  0  0
    0.6771    2.0196    0.0000 C   0  0  0  0  0  0  0  0  0  0  0  0
    1.7352    3.0828    0.0000 C   0  0  0  0  0  0  0  0  0  0  0  0
    3.1850    2.6980    0.0000 C   0  0  0  0  0  0  0  0  0  0  0  0
    3.5767    1.2500    0.0000 C   0  0  0  0  0  0  0  0  0  0  0  0
    5.0265    0.8652    0.0000 C   0  0  0  0  0  0  0  0  0  0  0  0
  1  2  1  0
  2  3  1  0
  3  4  2  0
  4  5  1  0
  5  6  2  0
  6  7  1  0
  7  8  1  0
  8  9  1  0
  9 10  1  0
 10 11  1  0
 11 12  1  0
 12 13  1  0
 13 14  1  0
 14 15  1  0
 14 16  1  0
 16 17  1  0
  7 18  2  0
 18 19  1  0
 19 20  2  0
 20 21  1  0
 21 22  2  0
 22  3  1  0
 21  6  1  0
 17 11  1  0
M  END
>  <ChemBL_ID>  (949) 
CHEMBL559178

>  <Compound_Key>  (949) 
24.HCl

>  <Ki>  (949) 
38.9

>  <database>  (949) 
CHEMBL

>  <Assay_ChEMBL_ID>  (949) 
CHEMBL860171

>  <Document_ChEMBL_ID>  (949) 
CHEMBL1141188

$$$$

     RDKit          2D

 21 23  0  0  0  0  0  0  0  0999 V2000
    6.8428   -2.4593    0.0000 C   0  0  0  0  0  0  0  0  0  0  0  0
    6.4641   -1.0079    0.0000 O   0  0  0  0  0  0  0  0  0  0  0  0
    5.0178   -0.6101    0.0000 C   0  0  0  0  0  0  0  0  0  0  0  0
    3.9502   -1.6638    0.0000 C   0  0  0  0  0  0  0  0  0  0  0  0
    2.5039   -1.2660    0.0000 C   0  0  0  0  0  0  0  0  0  0  0  0
    2.1252    0.1854    0.0000 C   0  0  0  0  0  0  0  0  0  0  0  0
    0.6789    0.5831    0.0000 C   0  0  0  0  0  0  0  0  0  0  0  0
   -0.3887   -0.4705    0.0000 C   0  0  0  0  0  0  0  0  0  0  0  0
   -1.8350   -0.0728    0.0000 C   0  0  0  0  0  0  0  0  0  0  0  0
   -2.9026   -1.1264    0.0000 C   0  0  0  0  0  0  0  0  0  0  0  0
   -4.3489   -0.7287    0.0000 N   0  0  0  0  0  0  0  0  0  0  0  0
   -4.7276    0.7228    0.0000 C   0  0  0  0  0  0  0  0  0  0  0  0
   -6.1739    1.1205    0.0000 C   0  0  0  0  0  0  0  0  0  0  0  0
   -7.2415    0.0669    0.0000 C   0  0  0  0  0  0  0  0  0  0  0  0
   -6.8628   -1.3846    0.0000 C   0  0  0  0  0  0  0  0  0  0  0  0
   -5.4165   -1.7823    0.0000 C   0  0  0  0  0  0  0  0  0  0  0  0
    0.3003    2.0346    0.0000 C   0  0  0  0  0  0  0  0  0  0  0  0
    1.3679    3.0882    0.0000 C   0  0  0  0  0  0  0  0  0  0  0  0
    2.8142    2.6905    0.0000 C   0  0  0  0  0  0  0  0  0  0  0  0
    3.1929    1.2391    0.0000 C   0  0  0  0  0  0  0  0  0  0  0  0
    4.6392    0.8413    0.0000 C   0  0  0  0  0  0  0  0  0  0  0  0
  1  2  1  0
  2  3  1  0
  3  4  2  0
  4  5  1  0
  5  6  2  0
  6  7  1  0
  7  8  1  0
  8  9  1  0
  9 10  1  0
 10 11  1  0
 11 12  1  0
 12 13  1  0
 13 14  1  0
 14 15  1  0
 15 16  1  0
  7 17  2  0
 17 18  1  0
 18 19  2  0
 19 20  1  0
 20 21  2  0
 21  3  1  0
 20  6  1  0
 16 11  1  0
M  END
>  <ChemBL_ID>  (950) 
CHEMBL553091

>  <Compound_Key>  (950) 
21.HCl

>  <Ki>  (950) 
175.0

>  <database>  (950) 
CHEMBL

>  <Assay_ChEMBL_ID>  (950) 
CHEMBL860171

>  <Document_ChEMBL_ID>  (950) 
CHEMBL1141188

$$$$

     RDKit          2D

 22 24  0  0  0  0  0  0  0  0999 V2000
    6.9694   -2.6048    0.0000 C   0  0  0  0  0  0  0  0  0  0  0  0
    6.6515   -1.1389    0.0000 O   0  0  0  0  0  0  0  0  0  0  0  0
    5.2230   -0.6812    0.0000 C   0  0  0  0  0  0  0  0  0  0  0  0
    4.1124   -1.6895    0.0000 C   0  0  0  0  0  0  0  0  0  0  0  0
    2.6839   -1.2319    0.0000 C   0  0  0  0  0  0  0  0  0  0  0  0
    2.3660    0.2341    0.0000 C   0  0  0  0  0  0  0  0  0  0  0  0
    0.9375    0.6917    0.0000 C   0  0  0  0  0  0  0  0  0  0  0  0
   -0.1730   -0.3166    0.0000 C   0  0  0  0  0  0  0  0  0  0  0  0
   -1.6015    0.1411    0.0000 C   0  0  0  0  0  0  0  0  0  0  0  0
   -2.7121   -0.8672    0.0000 C   0  0  0  0  0  0  0  0  0  0  0  0
   -4.1406   -0.4096    0.0000 N   0  0  0  0  0  0  0  0  0  0  0  0
   -4.4585    1.0563    0.0000 C   0  0  0  0  0  0  0  0  0  0  0  0
   -5.8870    1.5140    0.0000 C   0  0  0  0  0  0  0  0  0  0  0  0
   -6.9975    0.5057    0.0000 C   0  0  0  0  0  0  0  0  0  0  0  0
   -6.6796   -0.9602    0.0000 C   0  0  0  0  0  0  0  0  0  0  0  0
   -5.2511   -1.4179    0.0000 C   0  0  0  0  0  0  0  0  0  0  0  0
   -4.9332   -2.8838    0.0000 C   0  0  0  0  0  0  0  0  0  0  0  0
    0.6196    2.1576    0.0000 C   0  0  0  0  0  0  0  0  0  0  0  0
    1.7302    3.1659    0.0000 C   0  0  0  0  0  0  0  0  0  0  0  0
    3.1587    2.7083    0.0000 C   0  0  0  0  0  0  0  0  0  0  0  0
    3.4766    1.2423    0.0000 C   0  0  0  0  0  0  0  0  0  0  0  0
    4.9051    0.7847    0.0000 C   0  0  0  0  0  0  0  0  0  0  0  0
  1  2  1  0
  2  3  1  0
  3  4  2  0
  4  5  1  0
  5  6  2  0
  6  7  1  0
  7  8  1  0
  8  9  1  0
  9 10  1  0
 10 11  1  0
 11 12  1  0
 12 13  1  0
 13 14  1  0
 14 15  1  0
 15 16  1  0
 16 17  1  6
  7 18  2  0
 18 19  1  0
 19 20  2  0
 20 21  1  0
 21 22  2  0
 22  3  1  0
 21  6  1  0
 16 11  1  0
M  END
>  <ChemBL_ID>  (951) 
CHEMBL542701

>  <Compound_Key>  (951) 
(-)-(R)-22.HCl

>  <Ki>  (951) 
86.2

>  <database>  (951) 
CHEMBL

>  <Assay_ChEMBL_ID>  (951) 
CHEMBL860171

>  <Document_ChEMBL_ID>  (951) 
CHEMBL1141188

$$$$

     RDKit          2D

 23 25  0  0  0  0  0  0  0  0999 V2000
    6.7491   -3.3684    0.0000 C   0  0  0  0  0  0  0  0  0  0  0  0
    6.7367   -1.8685    0.0000 O   0  0  0  0  0  0  0  0  0  0  0  0
    5.4316   -1.1292    0.0000 C   0  0  0  0  0  0  0  0  0  0  0  0
    4.1387   -1.8899    0.0000 C   0  0  0  0  0  0  0  0  0  0  0  0
    2.8336   -1.1506    0.0000 C   0  0  0  0  0  0  0  0  0  0  0  0
    2.8212    0.3493    0.0000 C   0  0  0  0  0  0  0  0  0  0  0  0
    1.5160    1.0886    0.0000 C   0  0  0  0  0  0  0  0  0  0  0  0
    0.2232    0.3279    0.0000 C   0  0  0  0  0  0  0  0  0  0  0  0
   -1.0819    1.0672    0.0000 C   0  0  0  0  0  0  0  0  0  0  0  0
   -2.3748    0.3065    0.0000 C   0  0  0  0  0  0  0  0  0  0  0  0
   -3.6799    1.0458    0.0000 C   0  0  0  0  0  0  0  0  0  0  0  0
   -4.9727    0.2851    0.0000 N   0  0  0  0  0  0  0  0  0  0  0  0
   -6.2779    1.0244    0.0000 C   0  0  0  0  0  0  0  0  0  0  0  0
   -7.5707    0.2637    0.0000 C   0  0  0  0  0  0  0  0  0  0  0  0
   -7.5584   -1.2362    0.0000 C   0  0  0  0  0  0  0  0  0  0  0  0
   -6.2532   -1.9755    0.0000 C   0  0  0  0  0  0  0  0  0  0  0  0
   -4.9604   -1.2148    0.0000 C   0  0  0  0  0  0  0  0  0  0  0  0
   -3.6552   -1.9541    0.0000 C   0  0  0  0  0  0  0  0  0  0  0  0
    1.5037    2.5886    0.0000 C   0  0  0  0  0  0  0  0  0  0  0  0
    2.7965    3.3492    0.0000 C   0  0  0  0  0  0  0  0  0  0  0  0
    4.1017    2.6100    0.0000 C   0  0  0  0  0  0  0  0  0  0  0  0
    4.1140    1.1100    0.0000 C   0  0  0  0  0  0  0  0  0  0  0  0
    5.4192    0.3707    0.0000 C   0  0  0  0  0  0  0  0  0  0  0  0
  1  2  1  0
  2  3  1  0
  3  4  2  0
  4  5  1  0
  5  6  2  0
  6  7  1  0
  7  8  1  0
  8  9  1  0
  9 10  1  0
 10 11  1  0
 11 12  1  0
 12 13  1  0
 13 14  1  0
 14 15  1  0
 15 16  1  0
 16 17  1  0
 17 18  1  6
  7 19  2  0
 19 20  1  0
 20 21  2  0
 21 22  1  0
 22 23  2  0
 23  3  1  0
 22  6  1  0
 17 12  1  0
M  END
>  <ChemBL_ID>  (952) 
CHEMBL535363

>  <Compound_Key>  (952) 
(-)-(R)-29.HCl

>  <Ki>  (952) 
49.2

>  <database>  (952) 
CHEMBL

>  <Assay_ChEMBL_ID>  (952) 
CHEMBL860171

>  <Document_ChEMBL_ID>  (952) 
CHEMBL1141188

$$$$

     RDKit          2D

 22 24  0  0  0  0  0  0  0  0999 V2000
    6.9694   -2.6048    0.0000 C   0  0  0  0  0  0  0  0  0  0  0  0
    6.6515   -1.1389    0.0000 O   0  0  0  0  0  0  0  0  0  0  0  0
    5.2230   -0.6812    0.0000 C   0  0  0  0  0  0  0  0  0  0  0  0
    4.1124   -1.6895    0.0000 C   0  0  0  0  0  0  0  0  0  0  0  0
    2.6839   -1.2319    0.0000 C   0  0  0  0  0  0  0  0  0  0  0  0
    2.3660    0.2341    0.0000 C   0  0  0  0  0  0  0  0  0  0  0  0
    0.9375    0.6917    0.0000 C   0  0  0  0  0  0  0  0  0  0  0  0
   -0.1730   -0.3166    0.0000 C   0  0  0  0  0  0  0  0  0  0  0  0
   -1.6015    0.1411    0.0000 C   0  0  0  0  0  0  0  0  0  0  0  0
   -2.7121   -0.8672    0.0000 C   0  0  0  0  0  0  0  0  0  0  0  0
   -4.1406   -0.4096    0.0000 N   0  0  0  0  0  0  0  0  0  0  0  0
   -4.4585    1.0563    0.0000 C   0  0  0  0  0  0  0  0  0  0  0  0
   -5.8870    1.5140    0.0000 C   0  0  0  0  0  0  0  0  0  0  0  0
   -6.9975    0.5057    0.0000 C   0  0  0  0  0  0  0  0  0  0  0  0
   -6.6796   -0.9602    0.0000 C   0  0  0  0  0  0  0  0  0  0  0  0
   -5.2511   -1.4179    0.0000 C   0  0  0  0  0  0  0  0  0  0  0  0
   -4.9332   -2.8838    0.0000 C   0  0  0  0  0  0  0  0  0  0  0  0
    0.6196    2.1576    0.0000 C   0  0  0  0  0  0  0  0  0  0  0  0
    1.7302    3.1659    0.0000 C   0  0  0  0  0  0  0  0  0  0  0  0
    3.1587    2.7083    0.0000 C   0  0  0  0  0  0  0  0  0  0  0  0
    3.4766    1.2423    0.0000 C   0  0  0  0  0  0  0  0  0  0  0  0
    4.9051    0.7847    0.0000 C   0  0  0  0  0  0  0  0  0  0  0  0
  1  2  1  0
  2  3  1  0
  3  4  2  0
  4  5  1  0
  5  6  2  0
  6  7  1  0
  7  8  1  0
  8  9  1  0
  9 10  1  0
 10 11  1  0
 11 12  1  0
 12 13  1  0
 13 14  1  0
 14 15  1  0
 15 16  1  0
 16 17  1  1
  7 18  2  0
 18 19  1  0
 19 20  2  0
 20 21  1  0
 21 22  2  0
 22  3  1  0
 21  6  1  0
 16 11  1  0
M  END
>  <ChemBL_ID>  (953) 
CHEMBL538772

>  <Compound_Key>  (953) 
(+)-(S)-22.HCl

>  <Ki>  (953) 
104.0

>  <database>  (953) 
CHEMBL

>  <Assay_ChEMBL_ID>  (953) 
CHEMBL860171

>  <Document_ChEMBL_ID>  (953) 
CHEMBL1141188

$$$$

     RDKit          2D

 23 25  0  0  0  0  0  0  0  0999 V2000
    6.7491   -3.3684    0.0000 C   0  0  0  0  0  0  0  0  0  0  0  0
    6.7367   -1.8685    0.0000 O   0  0  0  0  0  0  0  0  0  0  0  0
    5.4316   -1.1292    0.0000 C   0  0  0  0  0  0  0  0  0  0  0  0
    4.1387   -1.8899    0.0000 C   0  0  0  0  0  0  0  0  0  0  0  0
    2.8336   -1.1506    0.0000 C   0  0  0  0  0  0  0  0  0  0  0  0
    2.8212    0.3493    0.0000 C   0  0  0  0  0  0  0  0  0  0  0  0
    1.5160    1.0886    0.0000 C   0  0  0  0  0  0  0  0  0  0  0  0
    0.2232    0.3279    0.0000 C   0  0  0  0  0  0  0  0  0  0  0  0
   -1.0819    1.0672    0.0000 C   0  0  0  0  0  0  0  0  0  0  0  0
   -2.3748    0.3065    0.0000 C   0  0  0  0  0  0  0  0  0  0  0  0
   -3.6799    1.0458    0.0000 C   0  0  0  0  0  0  0  0  0  0  0  0
   -4.9727    0.2851    0.0000 N   0  0  0  0  0  0  0  0  0  0  0  0
   -6.2779    1.0244    0.0000 C   0  0  0  0  0  0  0  0  0  0  0  0
   -7.5707    0.2637    0.0000 C   0  0  0  0  0  0  0  0  0  0  0  0
   -7.5584   -1.2362    0.0000 C   0  0  0  0  0  0  0  0  0  0  0  0
   -6.2532   -1.9755    0.0000 C   0  0  0  0  0  0  0  0  0  0  0  0
   -4.9604   -1.2148    0.0000 C   0  0  0  0  0  0  0  0  0  0  0  0
   -3.6552   -1.9541    0.0000 C   0  0  0  0  0  0  0  0  0  0  0  0
    1.5037    2.5886    0.0000 C   0  0  0  0  0  0  0  0  0  0  0  0
    2.7965    3.3492    0.0000 C   0  0  0  0  0  0  0  0  0  0  0  0
    4.1017    2.6100    0.0000 C   0  0  0  0  0  0  0  0  0  0  0  0
    4.1140    1.1100    0.0000 C   0  0  0  0  0  0  0  0  0  0  0  0
    5.4192    0.3707    0.0000 C   0  0  0  0  0  0  0  0  0  0  0  0
  1  2  1  0
  2  3  1  0
  3  4  2  0
  4  5  1  0
  5  6  2  0
  6  7  1  0
  7  8  1  0
  8  9  1  0
  9 10  1  0
 10 11  1  0
 11 12  1  0
 12 13  1  0
 13 14  1  0
 14 15  1  0
 15 16  1  0
 16 17  1  0
 17 18  1  1
  7 19  2  0
 19 20  1  0
 20 21  2  0
 21 22  1  0
 22 23  2  0
 23  3  1  0
 22  6  1  0
 17 12  1  0
M  END
>  <ChemBL_ID>  (954) 
CHEMBL559377

>  <Compound_Key>  (954) 
(+)-(S)-29.HCl

>  <Ki>  (954) 
53.8

>  <database>  (954) 
CHEMBL

>  <Assay_ChEMBL_ID>  (954) 
CHEMBL860171

>  <Document_ChEMBL_ID>  (954) 
CHEMBL1141188

$$$$

     RDKit          2D

 24 26  0  0  0  0  0  0  0  0999 V2000
    6.9077   -3.6207    0.0000 C   0  0  0  0  0  0  0  0  0  0  0  0
    6.9875   -2.1228    0.0000 O   0  0  0  0  0  0  0  0  0  0  0  0
    5.7302   -1.3047    0.0000 C   0  0  0  0  0  0  0  0  0  0  0  0
    4.3931   -1.9845    0.0000 C   0  0  0  0  0  0  0  0  0  0  0  0
    3.1358   -1.1665    0.0000 C   0  0  0  0  0  0  0  0  0  0  0  0
    3.2157    0.3314    0.0000 C   0  0  0  0  0  0  0  0  0  0  0  0
    1.9584    1.1494    0.0000 C   0  0  0  0  0  0  0  0  0  0  0  0
    0.6213    0.4696    0.0000 C   0  0  0  0  0  0  0  0  0  0  0  0
   -0.6360    1.2877    0.0000 C   0  0  0  0  0  0  0  0  0  0  0  0
   -1.9731    0.6078    0.0000 C   0  0  0  0  0  0  0  0  0  0  0  0
   -3.2304    1.4259    0.0000 C   0  0  0  0  0  0  0  0  0  0  0  0
   -4.5675    0.7461    0.0000 N   0  0  0  0  0  0  0  0  0  0  0  0
   -5.8248    1.5641    0.0000 C   0  0  0  0  0  0  0  0  0  0  0  0
   -7.1619    0.8843    0.0000 C   0  0  0  0  0  0  0  0  0  0  0  0
   -7.2417   -0.6136    0.0000 C   0  0  0  0  0  0  0  0  0  0  0  0
   -5.9844   -1.4316    0.0000 C   0  0  0  0  0  0  0  0  0  0  0  0
   -5.0828   -2.6304    0.0000 C   0  0  0  0  0  0  0  0  0  0  0  0
   -7.0084   -2.5278    0.0000 C   0  0  0  0  0  0  0  0  0  0  0  0
   -4.6473   -0.7518    0.0000 C   0  0  0  0  0  0  0  0  0  0  0  0
    2.0382    2.6473    0.0000 C   0  0  0  0  0  0  0  0  0  0  0  0
    3.3753    3.3271    0.0000 C   0  0  0  0  0  0  0  0  0  0  0  0
    4.6326    2.5091    0.0000 C   0  0  0  0  0  0  0  0  0  0  0  0
    4.5528    1.0112    0.0000 C   0  0  0  0  0  0  0  0  0  0  0  0
    5.8101    0.1931    0.0000 C   0  0  0  0  0  0  0  0  0  0  0  0
  1  2  1  0
  2  3  1  0
  3  4  2  0
  4  5  1  0
  5  6  2  0
  6  7  1  0
  7  8  1  0
  8  9  1  0
  9 10  1  0
 10 11  1  0
 11 12  1  0
 12 13  1  0
 13 14  1  0
 14 15  1  0
 15 16  1  0
 16 17  1  0
 16 18  1  0
 16 19  1  0
  7 20  2  0
 20 21  1  0
 21 22  2  0
 22 23  1  0
 23 24  2  0
 24  3  1  0
 23  6  1  0
 19 12  1  0
M  END
>  <ChemBL_ID>  (955) 
CHEMBL544343

>  <Compound_Key>  (955) 
33.HCl

>  <Ki>  (955) 
67.4

>  <database>  (955) 
CHEMBL

>  <Assay_ChEMBL_ID>  (955) 
CHEMBL860171

>  <Document_ChEMBL_ID>  (955) 
CHEMBL1141188

$$$$

     RDKit          2D

 23 25  0  0  0  0  0  0  0  0999 V2000
    7.1171   -2.7101    0.0000 C   0  0  0  0  0  0  0  0  0  0  0  0
    6.8404   -1.2358    0.0000 O   0  0  0  0  0  0  0  0  0  0  0  0
    5.4254   -0.7382    0.0000 C   0  0  0  0  0  0  0  0  0  0  0  0
    4.2869   -1.7149    0.0000 C   0  0  0  0  0  0  0  0  0  0  0  0
    2.8719   -1.2174    0.0000 C   0  0  0  0  0  0  0  0  0  0  0  0
    2.5952    0.2569    0.0000 C   0  0  0  0  0  0  0  0  0  0  0  0
    3.7337    1.2336    0.0000 C   0  0  0  0  0  0  0  0  0  0  0  0
    5.1487    0.7360    0.0000 C   0  0  0  0  0  0  0  0  0  0  0  0
    3.4570    2.7079    0.0000 C   0  0  0  0  0  0  0  0  0  0  0  0
    2.0419    3.2054    0.0000 C   0  0  0  0  0  0  0  0  0  0  0  0
    0.9035    2.2287    0.0000 C   0  0  0  0  0  0  0  0  0  0  0  0
    1.1801    0.7544    0.0000 C   0  0  0  0  0  0  0  0  0  0  0  0
    0.0417   -0.2223    0.0000 C   0  0  0  0  0  0  0  0  0  0  0  0
   -1.3734    0.2753    0.0000 C   0  0  0  0  0  0  0  0  0  0  0  0
   -2.5118   -0.7015    0.0000 C   0  0  0  0  0  0  0  0  0  0  0  0
   -3.9269   -0.2039    0.0000 N   0  0  0  0  0  0  0  0  0  0  0  0
   -4.2035    1.2704    0.0000 C   0  0  0  0  0  0  0  0  0  0  0  0
   -5.6186    1.7679    0.0000 C   0  0  0  0  0  0  0  0  0  0  0  0
   -6.7570    0.7912    0.0000 C   0  0  0  0  0  0  0  0  0  0  0  0
   -6.4804   -0.6831    0.0000 C   0  0  0  0  0  0  0  0  0  0  0  0
   -5.0653   -1.1806    0.0000 C   0  0  0  0  0  0  0  0  0  0  0  0
   -3.9057   -2.1321    0.0000 C   0  0  0  0  0  0  0  0  0  0  0  0
   -5.8010   -2.4878    0.0000 C   0  0  0  0  0  0  0  0  0  0  0  0
  1  2  1  0
  2  3  1  0
  3  4  2  0
  4  5  1  0
  5  6  2  0
  6  7  1  0
  7  8  2  0
  7  9  1  0
  9 10  1  0
 10 11  1  0
 11 12  1  0
 12 13  1  0
 13 14  1  0
 14 15  1  0
 15 16  1  0
 16 17  1  0
 17 18  1  0
 18 19  1  0
 19 20  1  0
 20 21  1  0
 21 22  1  0
 21 23  1  0
  8  3  1  0
 21 16  1  0
 12  6  1  0
M  END
>  <ChemBL_ID>  (956) 
CHEMBL537399

>  <Compound_Key>  (956) 
13.HCl

>  <Ki>  (956) 
115.0

>  <database>  (956) 
CHEMBL

>  <Assay_ChEMBL_ID>  (956) 
CHEMBL860171

>  <Document_ChEMBL_ID>  (956) 
CHEMBL1141188

$$$$

     RDKit          2D

 24 26  0  0  0  0  0  0  0  0999 V2000
    6.8718   -3.4145    0.0000 C   0  0  0  0  0  0  0  0  0  0  0  0
    6.8840   -1.9145    0.0000 O   0  0  0  0  0  0  0  0  0  0  0  0
    5.5911   -1.1540    0.0000 C   0  0  0  0  0  0  0  0  0  0  0  0
    4.2860   -1.8934    0.0000 C   0  0  0  0  0  0  0  0  0  0  0  0
    2.9932   -1.1328    0.0000 C   0  0  0  0  0  0  0  0  0  0  0  0
    3.0054    0.3672    0.0000 C   0  0  0  0  0  0  0  0  0  0  0  0
    4.3105    1.1065    0.0000 C   0  0  0  0  0  0  0  0  0  0  0  0
    5.6034    0.3460    0.0000 C   0  0  0  0  0  0  0  0  0  0  0  0
    4.3227    2.6065    0.0000 C   0  0  0  0  0  0  0  0  0  0  0  0
    3.0298    3.3671    0.0000 C   0  0  0  0  0  0  0  0  0  0  0  0
    1.7247    2.6277    0.0000 C   0  0  0  0  0  0  0  0  0  0  0  0
    1.7125    1.1277    0.0000 C   0  0  0  0  0  0  0  0  0  0  0  0
    0.4074    0.3883    0.0000 C   0  0  0  0  0  0  0  0  0  0  0  0
   -0.8855    1.1489    0.0000 C   0  0  0  0  0  0  0  0  0  0  0  0
   -2.1906    0.4095    0.0000 C   0  0  0  0  0  0  0  0  0  0  0  0
   -3.4835    1.1701    0.0000 C   0  0  0  0  0  0  0  0  0  0  0  0
   -4.7886    0.4307    0.0000 N   0  0  0  0  0  0  0  0  0  0  0  0
   -6.0815    1.1912    0.0000 C   0  0  0  0  0  0  0  0  0  0  0  0
   -7.3866    0.4518    0.0000 C   0  0  0  0  0  0  0  0  0  0  0  0
   -7.3988   -1.0481    0.0000 C   0  0  0  0  0  0  0  0  0  0  0  0
   -6.1059   -1.8087    0.0000 C   0  0  0  0  0  0  0  0  0  0  0  0
   -4.8008   -1.0693    0.0000 C   0  0  0  0  0  0  0  0  0  0  0  0
   -3.3215   -0.8209    0.0000 C   0  0  0  0  0  0  0  0  0  0  0  0
   -4.2993   -2.4830    0.0000 C   0  0  0  0  0  0  0  0  0  0  0  0
  1  2  1  0
  2  3  1  0
  3  4  2  0
  4  5  1  0
  5  6  2  0
  6  7  1  0
  7  8  2  0
  7  9  1  0
  9 10  1  0
 10 11  1  0
 11 12  1  0
 12 13  1  0
 13 14  1  0
 14 15  1  0
 15 16  1  0
 16 17  1  0
 17 18  1  0
 18 19  1  0
 19 20  1  0
 20 21  1  0
 21 22  1  0
 22 23  1  0
 22 24  1  0
  8  3  1  0
 22 17  1  0
 12  6  1  0
M  END
>  <ChemBL_ID>  (957) 
CHEMBL539545

>  <Compound_Key>  (957) 
18.HCl

>  <Ki>  (957) 
29.5

>  <database>  (957) 
CHEMBL

>  <Assay_ChEMBL_ID>  (957) 
CHEMBL860171

>  <Document_ChEMBL_ID>  (957) 
CHEMBL1141188

$$$$

     RDKit          2D

 22 24  0  0  0  0  0  0  0  0999 V2000
    6.6416   -3.3431    0.0000 C   0  0  0  0  0  0  0  0  0  0  0  0
    6.6034   -1.8436    0.0000 O   0  0  0  0  0  0  0  0  0  0  0  0
    5.2857   -1.1270    0.0000 C   0  0  0  0  0  0  0  0  0  0  0  0
    4.0062   -1.9098    0.0000 C   0  0  0  0  0  0  0  0  0  0  0  0
    2.6884   -1.1932    0.0000 C   0  0  0  0  0  0  0  0  0  0  0  0
    2.6502    0.3063    0.0000 C   0  0  0  0  0  0  0  0  0  0  0  0
    1.3324    1.0229    0.0000 C   0  0  0  0  0  0  0  0  0  0  0  0
    0.0529    0.2401    0.0000 C   0  0  0  0  0  0  0  0  0  0  0  0
   -1.2648    0.9567    0.0000 C   0  0  0  0  0  0  0  0  0  0  0  0
   -2.5443    0.1738    0.0000 C   0  0  0  0  0  0  0  0  0  0  0  0
   -3.8620    0.8905    0.0000 C   0  0  0  0  0  0  0  0  0  0  0  0
   -5.1415    0.1076    0.0000 N   0  0  0  0  0  0  0  0  0  0  0  0
   -6.4593    0.8242    0.0000 C   0  0  0  0  0  0  0  0  0  0  0  0
   -7.7388    0.0413    0.0000 C   0  0  0  0  0  0  0  0  0  0  0  0
   -7.7005   -1.4582    0.0000 C   0  0  0  0  0  0  0  0  0  0  0  0
   -6.3828   -2.1748    0.0000 C   0  0  0  0  0  0  0  0  0  0  0  0
   -5.1033   -1.3919    0.0000 C   0  0  0  0  0  0  0  0  0  0  0  0
    1.2942    2.5225    0.0000 C   0  0  0  0  0  0  0  0  0  0  0  0
    2.5737    3.3053    0.0000 C   0  0  0  0  0  0  0  0  0  0  0  0
    3.8914    2.5887    0.0000 C   0  0  0  0  0  0  0  0  0  0  0  0
    3.9297    1.0892    0.0000 C   0  0  0  0  0  0  0  0  0  0  0  0
    5.2474    0.3726    0.0000 C   0  0  0  0  0  0  0  0  0  0  0  0
  1  2  1  0
  2  3  1  0
  3  4  2  0
  4  5  1  0
  5  6  2  0
  6  7  1  0
  7  8  1  0
  8  9  1  0
  9 10  1  0
 10 11  1  0
 11 12  1  0
 12 13  1  0
 13 14  1  0
 14 15  1  0
 15 16  1  0
 16 17  1  0
  7 18  2  0
 18 19  1  0
 19 20  2  0
 20 21  1  0
 21 22  2  0
 22  3  1  0
 21  6  1  0
 17 12  1  0
M  END
>  <ChemBL_ID>  (958) 
CHEMBL535366

>  <Compound_Key>  (958) 
28.HCl

>  <Ki>  (958) 
151.0

>  <database>  (958) 
CHEMBL

>  <Assay_ChEMBL_ID>  (958) 
CHEMBL860171

>  <Document_ChEMBL_ID>  (958) 
CHEMBL1141188

$$$$

     RDKit          2D

 23 25  0  0  0  0  0  0  0  0999 V2000
    7.1171   -2.7101    0.0000 C   0  0  0  0  0  0  0  0  0  0  0  0
    6.8404   -1.2358    0.0000 O   0  0  0  0  0  0  0  0  0  0  0  0
    5.4254   -0.7382    0.0000 C   0  0  0  0  0  0  0  0  0  0  0  0
    4.2869   -1.7149    0.0000 C   0  0  0  0  0  0  0  0  0  0  0  0
    2.8719   -1.2174    0.0000 C   0  0  0  0  0  0  0  0  0  0  0  0
    2.5952    0.2569    0.0000 C   0  0  0  0  0  0  0  0  0  0  0  0
    1.1801    0.7544    0.0000 C   0  0  0  0  0  0  0  0  0  0  0  0
    0.0417   -0.2223    0.0000 C   0  0  0  0  0  0  0  0  0  0  0  0
   -1.3734    0.2753    0.0000 C   0  0  0  0  0  0  0  0  0  0  0  0
   -2.5118   -0.7015    0.0000 C   0  0  0  0  0  0  0  0  0  0  0  0
   -3.9269   -0.2039    0.0000 N   0  0  0  0  0  0  0  0  0  0  0  0
   -4.2035    1.2704    0.0000 C   0  0  0  0  0  0  0  0  0  0  0  0
   -5.6186    1.7679    0.0000 C   0  0  0  0  0  0  0  0  0  0  0  0
   -6.7570    0.7912    0.0000 C   0  0  0  0  0  0  0  0  0  0  0  0
   -6.4804   -0.6831    0.0000 C   0  0  0  0  0  0  0  0  0  0  0  0
   -5.0653   -1.1806    0.0000 C   0  0  0  0  0  0  0  0  0  0  0  0
   -3.9057   -2.1321    0.0000 C   0  0  0  0  0  0  0  0  0  0  0  0
   -5.8010   -2.4878    0.0000 C   0  0  0  0  0  0  0  0  0  0  0  0
    0.9035    2.2287    0.0000 C   0  0  0  0  0  0  0  0  0  0  0  0
    2.0419    3.2054    0.0000 C   0  0  0  0  0  0  0  0  0  0  0  0
    3.4570    2.7079    0.0000 C   0  0  0  0  0  0  0  0  0  0  0  0
    3.7337    1.2336    0.0000 C   0  0  0  0  0  0  0  0  0  0  0  0
    5.1487    0.7360    0.0000 C   0  0  0  0  0  0  0  0  0  0  0  0
  1  2  1  0
  2  3  1  0
  3  4  2  0
  4  5  1  0
  5  6  2  0
  6  7  1  0
  7  8  1  0
  8  9  1  0
  9 10  1  0
 10 11  1  0
 11 12  1  0
 12 13  1  0
 13 14  1  0
 14 15  1  0
 15 16  1  0
 16 17  1  0
 16 18  1  0
  7 19  2  0
 19 20  1  0
 20 21  2  0
 21 22  1  0
 22 23  2  0
 23  3  1  0
 22  6  1  0
 16 11  1  0
M  END
>  <ChemBL_ID>  (959) 
CHEMBL540361

>  <Compound_Key>  (959) 
25.HCl

>  <Ki>  (959) 
94.0

>  <database>  (959) 
CHEMBL

>  <Assay_ChEMBL_ID>  (959) 
CHEMBL860171

>  <Document_ChEMBL_ID>  (959) 
CHEMBL1141188

$$$$

     RDKit          2D

 23 25  0  0  0  0  0  0  0  0999 V2000
    6.7550   -3.5151    0.0000 C   0  0  0  0  0  0  0  0  0  0  0  0
    6.7895   -2.0155    0.0000 O   0  0  0  0  0  0  0  0  0  0  0  0
    5.5081   -1.2358    0.0000 C   0  0  0  0  0  0  0  0  0  0  0  0
    4.1921   -1.9557    0.0000 C   0  0  0  0  0  0  0  0  0  0  0  0
    2.9107   -1.1760    0.0000 C   0  0  0  0  0  0  0  0  0  0  0  0
    2.9452    0.3236    0.0000 C   0  0  0  0  0  0  0  0  0  0  0  0
    1.6637    1.1033    0.0000 C   0  0  0  0  0  0  0  0  0  0  0  0
    0.3478    0.3834    0.0000 C   0  0  0  0  0  0  0  0  0  0  0  0
   -0.9336    1.1631    0.0000 C   0  0  0  0  0  0  0  0  0  0  0  0
   -2.2496    0.4432    0.0000 C   0  0  0  0  0  0  0  0  0  0  0  0
   -3.5310    1.2229    0.0000 C   0  0  0  0  0  0  0  0  0  0  0  0
   -4.8470    0.5030    0.0000 N   0  0  0  0  0  0  0  0  0  0  0  0
   -6.1284    1.2827    0.0000 C   0  0  0  0  0  0  0  0  0  0  0  0
   -7.4444    0.5627    0.0000 C   0  0  0  0  0  0  0  0  0  0  0  0
   -7.4789   -0.9369    0.0000 C   0  0  0  0  0  0  0  0  0  0  0  0
   -6.1974   -1.7166    0.0000 C   0  0  0  0  0  0  0  0  0  0  0  0
   -6.2320   -3.2162    0.0000 C   0  0  0  0  0  0  0  0  0  0  0  0
   -4.8815   -0.9966    0.0000 C   0  0  0  0  0  0  0  0  0  0  0  0
    1.6983    2.6029    0.0000 C   0  0  0  0  0  0  0  0  0  0  0  0
    3.0142    3.3228    0.0000 C   0  0  0  0  0  0  0  0  0  0  0  0
    4.2956    2.5431    0.0000 C   0  0  0  0  0  0  0  0  0  0  0  0
    4.2611    1.0435    0.0000 C   0  0  0  0  0  0  0  0  0  0  0  0
    5.5426    0.2638    0.0000 C   0  0  0  0  0  0  0  0  0  0  0  0
  1  2  1  0
  2  3  1  0
  3  4  2  0
  4  5  1  0
  5  6  2  0
  6  7  1  0
  7  8  1  0
  8  9  1  0
  9 10  1  0
 10 11  1  0
 11 12  1  0
 12 13  1  0
 13 14  1  0
 14 15  1  0
 15 16  1  0
 16 17  1  6
 16 18  1  0
  7 19  2  0
 19 20  1  0
 20 21  2  0
 21 22  1  0
 22 23  2  0
 23  3  1  0
 22  6  1  0
 18 12  1  0
M  END
>  <ChemBL_ID>  (960) 
CHEMBL539333

>  <Compound_Key>  (960) 
(-)-(R)-30.HCl

>  <Ki>  (960) 
64.0

>  <database>  (960) 
CHEMBL

>  <Assay_ChEMBL_ID>  (960) 
CHEMBL860171

>  <Document_ChEMBL_ID>  (960) 
CHEMBL1141188

$$$$

     RDKit          2D

 22 24  0  0  0  0  0  0  0  0999 V2000
    7.0914   -2.6674    0.0000 C   0  0  0  0  0  0  0  0  0  0  0  0
    6.7778   -1.2006    0.0000 O   0  0  0  0  0  0  0  0  0  0  0  0
    5.3507   -0.7387    0.0000 C   0  0  0  0  0  0  0  0  0  0  0  0
    4.2371   -1.7437    0.0000 C   0  0  0  0  0  0  0  0  0  0  0  0
    2.8100   -1.2818    0.0000 C   0  0  0  0  0  0  0  0  0  0  0  0
    2.4965    0.1851    0.0000 C   0  0  0  0  0  0  0  0  0  0  0  0
    1.0693    0.6469    0.0000 C   0  0  0  0  0  0  0  0  0  0  0  0
   -0.0442   -0.3581    0.0000 C   0  0  0  0  0  0  0  0  0  0  0  0
   -1.4713    0.1038    0.0000 C   0  0  0  0  0  0  0  0  0  0  0  0
   -2.5849   -0.9012    0.0000 C   0  0  0  0  0  0  0  0  0  0  0  0
   -4.0120   -0.4393    0.0000 N   0  0  0  0  0  0  0  0  0  0  0  0
   -4.3256    1.0276    0.0000 C   0  0  0  0  0  0  0  0  0  0  0  0
   -5.7527    1.4894    0.0000 C   0  0  0  0  0  0  0  0  0  0  0  0
   -6.8663    0.4844    0.0000 C   0  0  0  0  0  0  0  0  0  0  0  0
   -6.5527   -0.9824    0.0000 C   0  0  0  0  0  0  0  0  0  0  0  0
   -7.6662   -1.9874    0.0000 C   0  0  0  0  0  0  0  0  0  0  0  0
   -5.1256   -1.4443    0.0000 C   0  0  0  0  0  0  0  0  0  0  0  0
    0.7558    2.1138    0.0000 C   0  0  0  0  0  0  0  0  0  0  0  0
    1.8693    3.1188    0.0000 C   0  0  0  0  0  0  0  0  0  0  0  0
    3.2964    2.6569    0.0000 C   0  0  0  0  0  0  0  0  0  0  0  0
    3.6100    1.1900    0.0000 C   0  0  0  0  0  0  0  0  0  0  0  0
    5.0371    0.7282    0.0000 C   0  0  0  0  0  0  0  0  0  0  0  0
  1  2  1  0
  2  3  1  0
  3  4  2  0
  4  5  1  0
  5  6  2  0
  6  7  1  0
  7  8  1  0
  8  9  1  0
  9 10  1  0
 10 11  1  0
 11 12  1  0
 12 13  1  0
 13 14  1  0
 14 15  1  0
 15 16  1  6
 15 17  1  0
  7 18  2  0
 18 19  1  0
 19 20  2  0
 20 21  1  0
 21 22  2  0
 22  3  1  0
 21  6  1  0
 17 11  1  0
M  END
>  <ChemBL_ID>  (961) 
CHEMBL552542

>  <Compound_Key>  (961) 
(-)-(R)-23.HCl

>  <Ki>  (961) 
60.2

>  <database>  (961) 
CHEMBL

>  <Assay_ChEMBL_ID>  (961) 
CHEMBL860171

>  <Document_ChEMBL_ID>  (961) 
CHEMBL1141188

$$$$

     RDKit          2D

 23 25  0  0  0  0  0  0  0  0999 V2000
   -2.4840    2.2149    0.0000 O   0  0  0  0  0  0  0  0  0  0  0  0
   -2.8384    0.7573    0.0000 C   0  0  0  0  0  0  0  0  0  0  0  0
   -1.7533   -0.2784    0.0000 N   0  0  0  0  0  0  0  0  0  0  0  0
   -0.3139    0.1434    0.0000 C   0  0  0  0  0  0  0  0  0  0  0  0
    0.7712   -0.8923    0.0000 C   0  0  0  0  0  0  0  0  0  0  0  0
    2.2106   -0.4704    0.0000 C   0  0  0  0  0  0  0  0  0  0  0  0
    2.5651    0.9871    0.0000 N   0  0  0  0  0  0  0  0  0  0  0  0
    4.0045    1.4089    0.0000 C   0  0  0  0  0  0  0  0  0  0  0  0
    5.0896    0.3732    0.0000 C   0  0  0  0  0  0  0  0  0  0  0  0
    4.7351   -1.0843    0.0000 C   0  0  0  0  0  0  0  0  0  0  0  0
    5.8202   -2.1200    0.0000 C   0  0  0  0  0  0  0  0  0  0  0  0
    7.2597   -1.6982    0.0000 C   0  0  0  0  0  0  0  0  0  0  0  0
    7.6141   -0.2407    0.0000 C   0  0  0  0  0  0  0  0  0  0  0  0
    6.5290    0.7950    0.0000 C   0  0  0  0  0  0  0  0  0  0  0  0
    1.4800    2.0228    0.0000 C   0  0  0  0  0  0  0  0  0  0  0  0
    0.0406    1.6010    0.0000 C   0  0  0  0  0  0  0  0  0  0  0  0
   -4.2779    0.3355    0.0000 C   0  0  0  0  0  0  0  0  0  0  0  0
   -5.3629    1.3712    0.0000 C   0  0  0  0  0  0  0  0  0  0  0  0
   -6.8024    0.9494    0.0000 C   0  0  0  0  0  0  0  0  0  0  0  0
   -7.1568   -0.5081    0.0000 C   0  0  0  0  0  0  0  0  0  0  0  0
   -6.0717   -1.5438    0.0000 C   0  0  0  0  0  0  0  0  0  0  0  0
   -6.4262   -3.0014    0.0000 I   0  0  0  0  0  0  0  0  0  0  0  0
   -4.6323   -1.1220    0.0000 C   0  0  0  0  0  0  0  0  0  0  0  0
  1  2  2  0
  2  3  1  0
  3  4  1  0
  4  5  1  0
  5  6  1  0
  6  7  1  0
  7  8  1  0
  8  9  1  0
  9 10  2  0
 10 11  1  0
 11 12  2  0
 12 13  1  0
 13 14  2  0
  7 15  1  0
 15 16  1  0
  2 17  1  0
 17 18  2  0
 18 19  1  0
 19 20  2  0
 20 21  1  0
 21 22  1  0
 21 23  2  0
 16  4  1  0
 23 17  1  0
 14  9  1  0
M  END
>  <ChemBL_ID>  (962) 
CHEMBL539938

>  <Compound_Key>  (962) 
3-IBP

>  <Ki>  (962) 
84.6

>  <database>  (962) 
CHEMBL

>  <Assay_ChEMBL_ID>  (962) 
CHEMBL805228

>  <Document_ChEMBL_ID>  (962) 
CHEMBL1127537

$$$$

     RDKit          2D

 23 25  0  0  0  0  0  0  0  0999 V2000
    7.3479   -2.7506    0.0000 C   0  0  0  0  0  0  0  0  0  0  0  0
    7.0641   -1.2777    0.0000 O   0  0  0  0  0  0  0  0  0  0  0  0
    5.6466   -0.7871    0.0000 C   0  0  0  0  0  0  0  0  0  0  0  0
    4.5129   -1.7694    0.0000 C   0  0  0  0  0  0  0  0  0  0  0  0
    3.0955   -1.2787    0.0000 C   0  0  0  0  0  0  0  0  0  0  0  0
    2.8116    0.1942    0.0000 C   0  0  0  0  0  0  0  0  0  0  0  0
    1.3941    0.6848    0.0000 C   0  0  0  0  0  0  0  0  0  0  0  0
    0.2605   -0.2974    0.0000 C   0  0  0  0  0  0  0  0  0  0  0  0
   -1.1570    0.1932    0.0000 C   0  0  0  0  0  0  0  0  0  0  0  0
   -2.2907   -0.7890    0.0000 C   0  0  0  0  0  0  0  0  0  0  0  0
   -3.7081   -0.2984    0.0000 N   0  0  0  0  0  0  0  0  0  0  0  0
   -3.9920    1.1745    0.0000 C   0  0  0  0  0  0  0  0  0  0  0  0
   -5.4095    1.6651    0.0000 C   0  0  0  0  0  0  0  0  0  0  0  0
   -6.5431    0.6829    0.0000 C   0  0  0  0  0  0  0  0  0  0  0  0
   -6.2593   -0.7900    0.0000 C   0  0  0  0  0  0  0  0  0  0  0  0
   -6.4963   -2.2712    0.0000 C   0  0  0  0  0  0  0  0  0  0  0  0
   -7.7591   -0.8138    0.0000 C   0  0  0  0  0  0  0  0  0  0  0  0
   -4.8418   -1.2807    0.0000 C   0  0  0  0  0  0  0  0  0  0  0  0
    1.1103    2.1577    0.0000 C   0  0  0  0  0  0  0  0  0  0  0  0
    2.2439    3.1400    0.0000 C   0  0  0  0  0  0  0  0  0  0  0  0
    3.6614    2.6493    0.0000 C   0  0  0  0  0  0  0  0  0  0  0  0
    3.9453    1.1764    0.0000 C   0  0  0  0  0  0  0  0  0  0  0  0
    5.3628    0.6858    0.0000 C   0  0  0  0  0  0  0  0  0  0  0  0
  1  2  1  0
  2  3  1  0
  3  4  2  0
  4  5  1  0
  5  6  2  0
  6  7  1  0
  7  8  1  0
  8  9  1  0
  9 10  1  0
 10 11  1  0
 11 12  1  0
 12 13  1  0
 13 14  1  0
 14 15  1  0
 15 16  1  0
 15 17  1  0
 15 18  1  0
  7 19  2  0
 19 20  1  0
 20 21  2  0
 21 22  1  0
 22 23  2  0
 23  3  1  0
 22  6  1  0
 18 11  1  0
M  END
>  <ChemBL_ID>  (963) 
CHEMBL537177

>  <Compound_Key>  (963) 
26.HCl

>  <Ki>  (963) 
238.0

>  <database>  (963) 
CHEMBL

>  <Assay_ChEMBL_ID>  (963) 
CHEMBL860171

>  <Document_ChEMBL_ID>  (963) 
CHEMBL1141188

$$$$

     RDKit          2D

 24 26  0  0  0  0  0  0  0  0999 V2000
    6.8718   -3.4145    0.0000 C   0  0  0  0  0  0  0  0  0  0  0  0
    6.8840   -1.9145    0.0000 O   0  0  0  0  0  0  0  0  0  0  0  0
    5.5911   -1.1540    0.0000 C   0  0  0  0  0  0  0  0  0  0  0  0
    4.2860   -1.8934    0.0000 C   0  0  0  0  0  0  0  0  0  0  0  0
    2.9932   -1.1328    0.0000 C   0  0  0  0  0  0  0  0  0  0  0  0
    3.0054    0.3672    0.0000 C   0  0  0  0  0  0  0  0  0  0  0  0
    1.7125    1.1277    0.0000 C   0  0  0  0  0  0  0  0  0  0  0  0
    0.4074    0.3883    0.0000 C   0  0  0  0  0  0  0  0  0  0  0  0
   -0.8855    1.1489    0.0000 C   0  0  0  0  0  0  0  0  0  0  0  0
   -2.1906    0.4095    0.0000 C   0  0  0  0  0  0  0  0  0  0  0  0
   -3.4835    1.1701    0.0000 C   0  0  0  0  0  0  0  0  0  0  0  0
   -4.7886    0.4307    0.0000 N   0  0  0  0  0  0  0  0  0  0  0  0
   -6.0815    1.1912    0.0000 C   0  0  0  0  0  0  0  0  0  0  0  0
   -7.3866    0.4518    0.0000 C   0  0  0  0  0  0  0  0  0  0  0  0
   -7.3988   -1.0481    0.0000 C   0  0  0  0  0  0  0  0  0  0  0  0
   -6.1059   -1.8087    0.0000 C   0  0  0  0  0  0  0  0  0  0  0  0
   -4.8008   -1.0693    0.0000 C   0  0  0  0  0  0  0  0  0  0  0  0
   -3.3215   -0.8209    0.0000 C   0  0  0  0  0  0  0  0  0  0  0  0
   -4.2993   -2.4830    0.0000 C   0  0  0  0  0  0  0  0  0  0  0  0
    1.7247    2.6277    0.0000 C   0  0  0  0  0  0  0  0  0  0  0  0
    3.0298    3.3671    0.0000 C   0  0  0  0  0  0  0  0  0  0  0  0
    4.3227    2.6065    0.0000 C   0  0  0  0  0  0  0  0  0  0  0  0
    4.3105    1.1065    0.0000 C   0  0  0  0  0  0  0  0  0  0  0  0
    5.6034    0.3460    0.0000 C   0  0  0  0  0  0  0  0  0  0  0  0
  1  2  1  0
  2  3  1  0
  3  4  2  0
  4  5  1  0
  5  6  2  0
  6  7  1  0
  7  8  1  0
  8  9  1  0
  9 10  1  0
 10 11  1  0
 11 12  1  0
 12 13  1  0
 13 14  1  0
 14 15  1  0
 15 16  1  0
 16 17  1  0
 17 18  1  0
 17 19  1  0
  7 20  2  0
 20 21  1  0
 21 22  2  0
 22 23  1  0
 23 24  2  0
 24  3  1  0
 23  6  1  0
 17 12  1  0
M  END
>  <ChemBL_ID>  (964) 
CHEMBL554450

>  <Compound_Key>  (964) 
32.HCl

>  <Ki>  (964) 
28.6

>  <database>  (964) 
CHEMBL

>  <Assay_ChEMBL_ID>  (964) 
CHEMBL860171

>  <Document_ChEMBL_ID>  (964) 
CHEMBL1141188

$$$$

     RDKit          2D

 23 25  0  0  0  0  0  0  0  0999 V2000
    6.9035   -3.5108    0.0000 C   0  0  0  0  0  0  0  0  0  0  0  0
    6.9223   -2.0109    0.0000 O   0  0  0  0  0  0  0  0  0  0  0  0
    5.6328   -1.2447    0.0000 C   0  0  0  0  0  0  0  0  0  0  0  0
    4.3245   -1.9783    0.0000 C   0  0  0  0  0  0  0  0  0  0  0  0
    3.0349   -1.2121    0.0000 C   0  0  0  0  0  0  0  0  0  0  0  0
    3.0538    0.2878    0.0000 C   0  0  0  0  0  0  0  0  0  0  0  0
    4.3621    1.0214    0.0000 C   0  0  0  0  0  0  0  0  0  0  0  0
    5.6516    0.2552    0.0000 C   0  0  0  0  0  0  0  0  0  0  0  0
    4.3809    2.5213    0.0000 C   0  0  0  0  0  0  0  0  0  0  0  0
    3.0914    3.2876    0.0000 C   0  0  0  0  0  0  0  0  0  0  0  0
    1.7831    2.5539    0.0000 C   0  0  0  0  0  0  0  0  0  0  0  0
    1.7642    1.0540    0.0000 C   0  0  0  0  0  0  0  0  0  0  0  0
    0.4559    0.3204    0.0000 C   0  0  0  0  0  0  0  0  0  0  0  0
   -0.8336    1.0866    0.0000 C   0  0  0  0  0  0  0  0  0  0  0  0
   -2.1420    0.3530    0.0000 C   0  0  0  0  0  0  0  0  0  0  0  0
   -3.4315    1.1192    0.0000 C   0  0  0  0  0  0  0  0  0  0  0  0
   -4.7398    0.3856    0.0000 N   0  0  0  0  0  0  0  0  0  0  0  0
   -6.0294    1.1518    0.0000 C   0  0  0  0  0  0  0  0  0  0  0  0
   -7.3377    0.4182    0.0000 C   0  0  0  0  0  0  0  0  0  0  0  0
   -7.3565   -1.0817    0.0000 C   0  0  0  0  0  0  0  0  0  0  0  0
   -8.6649   -1.8153    0.0000 C   0  0  0  0  0  0  0  0  0  0  0  0
   -6.0670   -1.8479    0.0000 C   0  0  0  0  0  0  0  0  0  0  0  0
   -4.7587   -1.1143    0.0000 C   0  0  0  0  0  0  0  0  0  0  0  0
  1  2  1  0
  2  3  1  0
  3  4  2  0
  4  5  1  0
  5  6  2  0
  6  7  1  0
  7  8  2  0
  7  9  1  0
  9 10  1  0
 10 11  1  0
 11 12  1  0
 12 13  1  0
 13 14  1  0
 14 15  1  0
 15 16  1  0
 16 17  1  0
 17 18  1  0
 18 19  1  0
 19 20  1  0
 20 21  1  0
 20 22  1  0
 22 23  1  0
  8  3  1  0
 23 17  1  0
 12  6  1  0
M  END
>  <ChemBL_ID>  (965) 
CHEMBL540573

>  <Compound_Key>  (965) 
17.HCl

>  <Ki>  (965) 
36.3

>  <database>  (965) 
CHEMBL

>  <Assay_ChEMBL_ID>  (965) 
CHEMBL860171

>  <Document_ChEMBL_ID>  (965) 
CHEMBL1141188

$$$$

     RDKit          2D

 21 23  0  0  0  0  0  0  0  0999 V2000
    6.8428   -2.4593    0.0000 C   0  0  0  0  0  0  0  0  0  0  0  0
    6.4641   -1.0079    0.0000 O   0  0  0  0  0  0  0  0  0  0  0  0
    5.0178   -0.6101    0.0000 C   0  0  0  0  0  0  0  0  0  0  0  0
    3.9502   -1.6638    0.0000 C   0  0  0  0  0  0  0  0  0  0  0  0
    2.5039   -1.2660    0.0000 C   0  0  0  0  0  0  0  0  0  0  0  0
    2.1252    0.1854    0.0000 C   0  0  0  0  0  0  0  0  0  0  0  0
    3.1929    1.2391    0.0000 C   0  0  0  0  0  0  0  0  0  0  0  0
    4.6392    0.8413    0.0000 C   0  0  0  0  0  0  0  0  0  0  0  0
    2.8142    2.6905    0.0000 C   0  0  0  0  0  0  0  0  0  0  0  0
    1.3679    3.0882    0.0000 C   0  0  0  0  0  0  0  0  0  0  0  0
    0.3003    2.0346    0.0000 C   0  0  0  0  0  0  0  0  0  0  0  0
    0.6789    0.5831    0.0000 C   0  0  0  0  0  0  0  0  0  0  0  0
   -0.3887   -0.4705    0.0000 C   0  0  0  0  0  0  0  0  0  0  0  0
   -1.8350   -0.0728    0.0000 C   0  0  0  0  0  0  0  0  0  0  0  0
   -2.9026   -1.1264    0.0000 C   0  0  0  0  0  0  0  0  0  0  0  0
   -4.3489   -0.7287    0.0000 N   0  0  0  0  0  0  0  0  0  0  0  0
   -4.7276    0.7228    0.0000 C   0  0  0  0  0  0  0  0  0  0  0  0
   -6.1739    1.1205    0.0000 C   0  0  0  0  0  0  0  0  0  0  0  0
   -7.2415    0.0669    0.0000 C   0  0  0  0  0  0  0  0  0  0  0  0
   -6.8628   -1.3846    0.0000 C   0  0  0  0  0  0  0  0  0  0  0  0
   -5.4165   -1.7823    0.0000 C   0  0  0  0  0  0  0  0  0  0  0  0
  1  2  1  0
  2  3  1  0
  3  4  2  0
  4  5  1  0
  5  6  2  0
  6  7  1  0
  7  8  2  0
  7  9  1  0
  9 10  1  0
 10 11  1  0
 11 12  1  0
 12 13  1  0
 13 14  1  0
 14 15  1  0
 15 16  1  0
 16 17  1  0
 17 18  1  0
 18 19  1  0
 19 20  1  0
 20 21  1  0
  8  3  1  0
 21 16  1  0
 12  6  1  0
M  END
>  <ChemBL_ID>  (966) 
CHEMBL558980

>  <Compound_Key>  (966) 
11.HCl

>  <Ki>  (966) 
26.2

>  <database>  (966) 
CHEMBL

>  <Assay_ChEMBL_ID>  (966) 
CHEMBL860171

>  <Document_ChEMBL_ID>  (966) 
CHEMBL1141188

$$$$

     RDKit          2D

 21 23  0  0  0  0  0  0  0  0999 V2000
   -3.1460   -2.9818    0.0000 C   0  0  0  0  0  0  0  0  0  0  0  0
   -1.8866   -2.1670    0.0000 O   0  0  0  0  0  0  0  0  0  0  0  0
   -1.8235    0.5458    0.0000 C   0  0  0  0  0  0  0  0  0  0  0  0
   -3.4061   -1.0763    0.0000 O   0  0  0  0  0  0  0  0  0  0  0  0
   -3.7752   -2.5302    0.0000 C   0  0  0  0  0  0  0  0  0  0  0  0
   -0.8653    0.4190    0.0000 C   0  0  0  0  0  0  0  0  0  0  0  0
   -0.1146    1.0280    0.0000 C   0  0  0  0  0  0  0  0  0  0  0  0
    0.5630    1.5631    0.0000 C   0  0  0  0  0  0  0  0  0  0  0  0
   -0.6556    2.4378    0.0000 C   0  0  0  0  0  0  0  0  0  0  0  0
   -2.0992    2.0305    0.0000 N   0  0  0  0  0  0  0  0  0  0  0  0
   -3.0926    3.1544    0.0000 C   0  0  0  0  0  0  0  0  0  0  0  0
   -2.6808    0.6478    0.0000 C   0  0  0  0  0  0  0  0  0  0  0  0
   -1.4623   -0.2269    0.0000 C   0  0  0  0  0  0  0  0  0  0  0  0
   -0.0186    0.1804    0.0000 N   0  0  0  0  0  0  0  0  0  0  0  0
    0.9747   -0.9435    0.0000 C   0  0  0  0  0  0  0  0  0  0  0  0
    2.4448   -0.6452    0.0000 C   0  0  0  0  0  0  0  0  0  0  0  0
    3.4381   -1.7691    0.0000 C   0  0  0  0  0  0  0  0  0  0  0  0
    4.9082   -1.4708    0.0000 C   0  0  0  0  0  0  0  0  0  0  0  0
    5.3848   -0.0486    0.0000 C   0  0  0  0  0  0  0  0  0  0  0  0
    4.3915    1.0754    0.0000 C   0  0  0  0  0  0  0  0  0  0  0  0
    2.9214    0.7771    0.0000 C   0  0  0  0  0  0  0  0  0  0  0  0
  1  2  1  0
  2  3  1  0
  3  4  1  0
  4  5  1  0
  3  6  1  0
  6  7  1  0
  7  8  1  0
  8  9  1  0
  9 10  1  0
 10 11  1  0
 10 12  1  0
 12 13  1  0
 13 14  1  0
 14 15  1  0
 15 16  1  0
 16 17  2  0
 17 18  1  0
 18 19  2  0
 19 20  1  0
 20 21  2  0
 12  3  1  0
 21 16  1  0
 14  8  1  0
M  END
>  <ChemBL_ID>  (967) 
CHEMBL244450

>  <Compound_Key>  (967) 
15a

>  <Ki>  (967) 
1830.0

>  <database>  (967) 
CHEMBL

>  <Assay_ChEMBL_ID>  (967) 
CHEMBL893122

>  <Document_ChEMBL_ID>  (967) 
CHEMBL1147988

$$$$

     RDKit          2D

 21 23  0  0  0  0  0  0  0  0999 V2000
    6.0119   -3.0468    0.0000 C   0  0  0  0  0  0  0  0  0  0  0  0
    5.5761   -1.6115    0.0000 C   0  0  0  0  0  0  0  0  0  0  0  0
    4.1152   -1.2713    0.0000 C   0  0  0  0  0  0  0  0  0  0  0  0
    3.6794    0.1640    0.0000 C   0  0  0  0  0  0  0  0  0  0  0  0
    2.2185    0.5042    0.0000 N   0  0  0  0  0  0  0  0  0  0  0  0
    1.2781   -0.6644    0.0000 C   0  0  0  0  0  0  0  0  0  0  0  0
   -0.2219   -0.6578    0.0000 C   0  0  0  0  0  0  0  0  0  0  0  0
    0.0202    0.1709    0.0000 C   0  0  0  0  0  0  0  0  0  0  0  0
    0.2790    1.1022    0.0000 C   0  0  0  0  0  0  0  0  0  0  0  0
    1.1334    1.5543    0.0000 C   0  0  0  0  0  0  0  0  0  0  0  0
    0.5492    4.1248    0.0000 O   0  0  0  0  0  0  0  0  0  0  0  0
    1.8911    1.9680    0.0000 C   0  0  0  0  0  0  0  0  0  0  0  0
    0.3912    1.9746    0.0000 C   0  0  0  0  0  0  0  0  0  0  0  0
   -0.5492    0.8060    0.0000 N   0  0  0  0  0  0  0  0  0  0  0  0
   -2.0101    1.1462    0.0000 C   0  0  0  0  0  0  0  0  0  0  0  0
   -3.0352    0.0512    0.0000 C   0  0  0  0  0  0  0  0  0  0  0  0
   -4.4961    0.3914    0.0000 C   0  0  0  0  0  0  0  0  0  0  0  0
   -5.5212   -0.7037    0.0000 C   0  0  0  0  0  0  0  0  0  0  0  0
   -5.0854   -2.1390    0.0000 C   0  0  0  0  0  0  0  0  0  0  0  0
   -3.6245   -2.4792    0.0000 C   0  0  0  0  0  0  0  0  0  0  0  0
   -2.5994   -1.3841    0.0000 C   0  0  0  0  0  0  0  0  0  0  0  0
  1  2  1  0
  2  3  1  0
  3  4  1  0
  4  5  1  0
  5  6  1  0
  6  7  1  0
  7  8  1  0
  8  9  1  0
  9 10  1  0
 10 11  1  0
 10 12  1  0
 12 13  1  0
 13 14  1  0
 14 15  1  0
 15 16  1  0
 16 17  2  0
 17 18  1  0
 18 19  2  0
 19 20  1  0
 20 21  2  0
 12  5  1  0
 21 16  1  0
 14  7  1  0
M  END
>  <ChemBL_ID>  (968) 
CHEMBL395069

>  <Compound_Key>  (968) 
8b

>  <Ki>  (968) 
447.0

>  <database>  (968) 
CHEMBL

>  <Assay_ChEMBL_ID>  (968) 
CHEMBL893122

>  <Document_ChEMBL_ID>  (968) 
CHEMBL1147988

$$$$

     RDKit          2D

 25 28  0  0  0  0  0  0  0  0999 V2000
   -0.0918    4.3561    0.0000 C   0  0  0  0  0  0  0  0  0  0  0  0
    0.3659    2.9276    0.0000 N   0  0  0  0  0  0  0  0  0  0  0  0
    1.8514    2.7202    0.0000 C   0  0  0  0  0  0  0  0  0  0  0  0
    2.6155    1.4293    0.0000 C   0  0  0  0  0  0  0  0  0  0  0  0
    1.7800    1.2118    0.0000 C   0  0  0  0  0  0  0  0  0  0  0  0
    0.8478    0.9560    0.0000 C   0  0  0  0  0  0  0  0  0  0  0  0
    0.0214    1.4574    0.0000 C   0  0  0  0  0  0  0  0  0  0  0  0
   -1.8851   -0.3631    0.0000 O   0  0  0  0  0  0  0  0  0  0  0  0
   -3.1922    0.3728    0.0000 C   0  0  0  0  0  0  0  0  0  0  0  0
   -4.4830   -0.3913    0.0000 C   0  0  0  0  0  0  0  0  0  0  0  0
   -5.7901    0.3446    0.0000 C   0  0  0  0  0  0  0  0  0  0  0  0
   -7.0809   -0.4194    0.0000 C   0  0  0  0  0  0  0  0  0  0  0  0
   -7.0647   -1.9194    0.0000 C   0  0  0  0  0  0  0  0  0  0  0  0
   -5.7576   -2.6552    0.0000 C   0  0  0  0  0  0  0  0  0  0  0  0
   -4.4667   -1.8912    0.0000 C   0  0  0  0  0  0  0  0  0  0  0  0
   -0.7226    1.8955    0.0000 C   0  0  0  0  0  0  0  0  0  0  0  0
    0.0415    0.6047    0.0000 C   0  0  0  0  0  0  0  0  0  0  0  0
    1.5271    0.3972    0.0000 N   0  0  0  0  0  0  0  0  0  0  0  0
    1.9847   -1.0313    0.0000 C   0  0  0  0  0  0  0  0  0  0  0  0
    3.4506   -1.3492    0.0000 C   0  0  0  0  0  0  0  0  0  0  0  0
    3.9083   -2.7777    0.0000 C   0  0  0  0  0  0  0  0  0  0  0  0
    5.3742   -3.0955    0.0000 C   0  0  0  0  0  0  0  0  0  0  0  0
    6.3825   -1.9850    0.0000 C   0  0  0  0  0  0  0  0  0  0  0  0
    5.9248   -0.5565    0.0000 C   0  0  0  0  0  0  0  0  0  0  0  0
    4.4589   -0.2386    0.0000 C   0  0  0  0  0  0  0  0  0  0  0  0
  1  2  1  0
  2  3  1  0
  3  4  1  0
  4  5  1  0
  5  6  1  0
  6  7  1  0
  7  8  1  6
  8  9  1  0
  9 10  1  0
 10 11  2  0
 11 12  1  0
 12 13  2  0
 13 14  1  0
 14 15  2  0
  7 16  1  0
 16 17  1  0
 17 18  1  0
 18 19  1  0
 19 20  1  0
 20 21  2  0
 21 22  1  0
 22 23  2  0
 23 24  1  0
 24 25  2  0
 16  2  1  0
 25 20  1  0
 18  4  1  0
 15 10  1  0
M  END
>  <ChemBL_ID>  (969) 
CHEMBL394352

>  <Compound_Key>  (969) 
13a(2R)

>  <Ki>  (969) 
30.4

>  <database>  (969) 
CHEMBL

>  <Assay_ChEMBL_ID>  (969) 
CHEMBL893122

>  <Document_ChEMBL_ID>  (969) 
CHEMBL1147988

$$$$

     RDKit          2D

 19 21  0  0  0  0  0  0  0  0999 V2000
   -4.2995   -2.5825    0.0000 C   0  0  0  0  0  0  0  0  0  0  0  0
   -2.8002   -2.5379    0.0000 O   0  0  0  0  0  0  0  0  0  0  0  0
   -2.1073    0.0054    0.0000 C   0  0  0  0  0  0  0  0  0  0  0  0
   -1.1407    0.0027    0.0000 C   0  0  0  0  0  0  0  0  0  0  0  0
   -0.4744    0.7030    0.0000 C   0  0  0  0  0  0  0  0  0  0  0  0
    0.1289    1.3206    0.0000 C   0  0  0  0  0  0  0  0  0  0  0  0
   -1.1919    2.0317    0.0000 C   0  0  0  0  0  0  0  0  0  0  0  0
   -2.5713    1.4424    0.0000 N   0  0  0  0  0  0  0  0  0  0  0  0
   -3.7007    2.4295    0.0000 C   0  0  0  0  0  0  0  0  0  0  0  0
   -2.9706   -0.0035    0.0000 C   0  0  0  0  0  0  0  0  0  0  0  0
   -1.6498   -0.7145    0.0000 C   0  0  0  0  0  0  0  0  0  0  0  0
   -0.2704   -0.1252    0.0000 N   0  0  0  0  0  0  0  0  0  0  0  0
    0.8590   -1.1123    0.0000 C   0  0  0  0  0  0  0  0  0  0  0  0
    2.2786   -0.6278    0.0000 C   0  0  0  0  0  0  0  0  0  0  0  0
    3.4080   -1.6149    0.0000 C   0  0  0  0  0  0  0  0  0  0  0  0
    4.8276   -1.1304    0.0000 C   0  0  0  0  0  0  0  0  0  0  0  0
    5.1177    0.3413    0.0000 C   0  0  0  0  0  0  0  0  0  0  0  0
    3.9883    1.3284    0.0000 C   0  0  0  0  0  0  0  0  0  0  0  0
    2.5687    0.8439    0.0000 C   0  0  0  0  0  0  0  0  0  0  0  0
  1  2  1  0
  3  2  1  6
  3  4  1  0
  4  5  1  0
  5  6  1  0
  6  7  1  0
  7  8  1  0
  8  9  1  0
  8 10  1  0
 10 11  1  0
 11 12  1  0
 12 13  1  0
 13 14  1  0
 14 15  2  0
 15 16  1  0
 16 17  2  0
 17 18  1  0
 18 19  2  0
 10  3  1  0
 19 14  1  0
 12  6  1  0
M  END
>  <ChemBL_ID>  (970) 
CHEMBL242297

>  <Compound_Key>  (970) 
12a(2R)

>  <Ki>  (970) 
327.0

>  <database>  (970) 
CHEMBL

>  <Assay_ChEMBL_ID>  (970) 
CHEMBL893122

>  <Document_ChEMBL_ID>  (970) 
CHEMBL1147988

$$$$

     RDKit          2D

 32 36  0  0  0  0  0  0  0  0999 V2000
    7.9508    1.1622    0.0000 C   0  0  0  0  0  0  0  0  0  0  0  0
    7.7580   -0.3254    0.0000 C   0  0  0  0  0  0  0  0  0  0  0  0
    6.3734   -0.9022    0.0000 C   0  0  0  0  0  0  0  0  0  0  0  0
    5.1815    0.0085    0.0000 C   0  0  0  0  0  0  0  0  0  0  0  0
    3.7969   -0.5684    0.0000 C   0  0  0  0  0  0  0  0  0  0  0  0
    2.6050    0.3423    0.0000 C   0  0  0  0  0  0  0  0  0  0  0  0
    1.2203   -0.2346    0.0000 N   0  0  0  0  0  0  0  0  0  0  0  0
    1.1393   -1.7324    0.0000 C   0  0  0  0  0  0  0  0  0  0  0  0
   -0.0823   -2.6029    0.0000 C   0  0  0  0  0  0  0  0  0  0  0  0
   -0.3697   -1.7888    0.0000 C   0  0  0  0  0  0  0  0  0  0  0  0
   -0.7034   -0.8816    0.0000 C   0  0  0  0  0  0  0  0  0  0  0  0
   -0.2738   -0.0157    0.0000 C   0  0  0  0  0  0  0  0  0  0  0  0
   -2.2490    1.7299    0.0000 O   0  0  0  0  0  0  0  0  0  0  0  0
   -1.6264    3.0945    0.0000 C   0  0  0  0  0  0  0  0  0  0  0  0
   -2.4969    4.3161    0.0000 C   0  0  0  0  0  0  0  0  0  0  0  0
   -1.8743    5.6808    0.0000 C   0  0  0  0  0  0  0  0  0  0  0  0
   -2.7448    6.9023    0.0000 C   0  0  0  0  0  0  0  0  0  0  0  0
   -4.2379    6.7592    0.0000 C   0  0  0  0  0  0  0  0  0  0  0  0
   -4.8606    5.3945    0.0000 C   0  0  0  0  0  0  0  0  0  0  0  0
   -3.9900    4.1730    0.0000 C   0  0  0  0  0  0  0  0  0  0  0  0
    0.0998    0.7626    0.0000 C   0  0  0  0  0  0  0  0  0  0  0  0
   -1.1217   -0.1079    0.0000 C   0  0  0  0  0  0  0  0  0  0  0  0
   -1.2028   -1.6057    0.0000 N   0  0  0  0  0  0  0  0  0  0  0  0
   -2.5874   -2.1826    0.0000 C   0  0  0  0  0  0  0  0  0  0  0  0
   -2.7801   -3.6702    0.0000 C   0  0  0  0  0  0  0  0  0  0  0  0
   -4.1648   -4.2470    0.0000 C   0  0  0  0  0  0  0  0  0  0  0  0
   -4.3575   -5.7346    0.0000 C   0  0  0  0  0  0  0  0  0  0  0  0
   -3.1656   -6.6453    0.0000 C   0  0  0  0  0  0  0  0  0  0  0  0
   -1.7810   -6.0684    0.0000 C   0  0  0  0  0  0  0  0  0  0  0  0
   -1.5882   -4.5809    0.0000 C   0  0  0  0  0  0  0  0  0  0  0  0
    5.3742    1.4960    0.0000 C   0  0  0  0  0  0  0  0  0  0  0  0
    6.7589    2.0729    0.0000 C   0  0  0  0  0  0  0  0  0  0  0  0
  1  2  2  0
  2  3  1  0
  3  4  2  0
  4  5  1  0
  5  6  1  0
  6  7  1  0
  7  8  1  0
  8  9  1  0
  9 10  1  0
 10 11  1  0
 11 12  1  0
 12 13  1  0
 13 14  1  0
 14 15  1  0
 15 16  2  0
 16 17  1  0
 17 18  2  0
 18 19  1  0
 19 20  2  0
 12 21  1  0
 21 22  1  0
 22 23  1  0
 23 24  1  0
 24 25  1  0
 25 26  2  0
 26 27  1  0
 27 28  2  0
 28 29  1  0
 29 30  2  0
  4 31  1  0
 31 32  2  0
 32  1  1  0
 21  7  1  0
 30 25  1  0
 23  9  1  0
 20 15  1  0
M  END
>  <ChemBL_ID>  (971) 
CHEMBL244449

>  <Compound_Key>  (971) 
13c

>  <Ki>  (971) 
628.0

>  <database>  (971) 
CHEMBL

>  <Assay_ChEMBL_ID>  (971) 
CHEMBL893122

>  <Document_ChEMBL_ID>  (971) 
CHEMBL1147988

$$$$

     RDKit          2D

 18 20  0  0  0  0  0  0  0  0999 V2000
   -4.1634    1.8473    0.0000 C   0  0  0  0  0  0  0  0  0  0  0  0
   -2.9340    0.9879    0.0000 N   0  0  0  0  0  0  0  0  0  0  0  0
   -1.6263    1.7227    0.0000 C   0  0  0  0  0  0  0  0  0  0  0  0
   -0.2364    1.1584    0.0000 C   0  0  0  0  0  0  0  0  0  0  0  0
   -0.7695    0.4793    0.0000 C   0  0  0  0  0  0  0  0  0  0  0  0
   -1.3563   -0.2889    0.0000 C   0  0  0  0  0  0  0  0  0  0  0  0
   -2.3175   -0.3906    0.0000 C   0  0  0  0  0  0  0  0  0  0  0  0
   -2.7318   -2.9939    0.0000 O   0  0  0  0  0  0  0  0  0  0  0  0
   -3.1748   -0.4926    0.0000 C   0  0  0  0  0  0  0  0  0  0  0  0
   -1.7850   -1.0569    0.0000 C   0  0  0  0  0  0  0  0  0  0  0  0
   -0.4773   -0.3221    0.0000 N   0  0  0  0  0  0  0  0  0  0  0  0
    0.7521   -1.1815    0.0000 C   0  0  0  0  0  0  0  0  0  0  0  0
    2.1111   -0.5465    0.0000 C   0  0  0  0  0  0  0  0  0  0  0  0
    3.3405   -1.4059    0.0000 C   0  0  0  0  0  0  0  0  0  0  0  0
    4.6994   -0.7709    0.0000 C   0  0  0  0  0  0  0  0  0  0  0  0
    4.8290    0.7235    0.0000 C   0  0  0  0  0  0  0  0  0  0  0  0
    3.5996    1.5829    0.0000 C   0  0  0  0  0  0  0  0  0  0  0  0
    2.2406    0.9479    0.0000 C   0  0  0  0  0  0  0  0  0  0  0  0
  1  2  1  0
  2  3  1  0
  3  4  1  0
  4  5  1  0
  5  6  1  0
  6  7  1  0
  7  8  1  6
  7  9  1  0
  9 10  1  0
 10 11  1  0
 11 12  1  0
 12 13  1  0
 13 14  2  0
 14 15  1  0
 15 16  2  0
 16 17  1  0
 17 18  2  0
  9  2  1  0
 18 13  1  0
 11  4  1  0
M  END
>  <ChemBL_ID>  (972) 
CHEMBL396978

>  <Compound_Key>  (972) 
8a(2S)

>  <Ki>  (972) 
2890.0

>  <database>  (972) 
CHEMBL

>  <Assay_ChEMBL_ID>  (972) 
CHEMBL893122

>  <Document_ChEMBL_ID>  (972) 
CHEMBL1147988

$$$$

     RDKit          2D

 28 31  0  0  0  0  0  0  0  0999 V2000
    2.0540    7.1148    0.0000 C   0  0  0  0  0  0  0  0  0  0  0  0
    0.9443    6.1055    0.0000 C   0  0  0  0  0  0  0  0  0  0  0  0
    1.2636    4.6398    0.0000 C   0  0  0  0  0  0  0  0  0  0  0  0
    0.1539    3.6306    0.0000 C   0  0  0  0  0  0  0  0  0  0  0  0
    0.4731    2.1649    0.0000 N   0  0  0  0  0  0  0  0  0  0  0  0
    1.9321    1.8166    0.0000 C   0  0  0  0  0  0  0  0  0  0  0  0
    2.5695    0.4588    0.0000 C   0  0  0  0  0  0  0  0  0  0  0  0
    1.7171    0.3220    0.0000 C   0  0  0  0  0  0  0  0  0  0  0  0
    0.7647    0.1564    0.0000 C   0  0  0  0  0  0  0  0  0  0  0  0
   -0.0101    0.7343    0.0000 C   0  0  0  0  0  0  0  0  0  0  0  0
   -2.0816   -0.8959    0.0000 O   0  0  0  0  0  0  0  0  0  0  0  0
   -3.3125   -0.0387    0.0000 C   0  0  0  0  0  0  0  0  0  0  0  0
   -4.6704   -0.6760    0.0000 C   0  0  0  0  0  0  0  0  0  0  0  0
   -5.9013    0.1812    0.0000 C   0  0  0  0  0  0  0  0  0  0  0  0
   -7.2591   -0.4561    0.0000 C   0  0  0  0  0  0  0  0  0  0  0  0
   -7.3861   -1.9508    0.0000 C   0  0  0  0  0  0  0  0  0  0  0  0
   -6.1552   -2.8080    0.0000 C   0  0  0  0  0  0  0  0  0  0  0  0
   -4.7973   -2.1706    0.0000 C   0  0  0  0  0  0  0  0  0  0  0  0
   -0.7089    1.2414    0.0000 C   0  0  0  0  0  0  0  0  0  0  0  0
   -0.0715   -0.1165    0.0000 C   0  0  0  0  0  0  0  0  0  0  0  0
    1.3875   -0.4648    0.0000 N   0  0  0  0  0  0  0  0  0  0  0  0
    1.7068   -1.9304    0.0000 C   0  0  0  0  0  0  0  0  0  0  0  0
    3.1357   -2.3867    0.0000 C   0  0  0  0  0  0  0  0  0  0  0  0
    3.4549   -3.8524    0.0000 C   0  0  0  0  0  0  0  0  0  0  0  0
    4.8838   -4.3087    0.0000 C   0  0  0  0  0  0  0  0  0  0  0  0
    5.9934   -3.2994    0.0000 C   0  0  0  0  0  0  0  0  0  0  0  0
    5.6742   -1.8338    0.0000 C   0  0  0  0  0  0  0  0  0  0  0  0
    4.2453   -1.3775    0.0000 C   0  0  0  0  0  0  0  0  0  0  0  0
  1  2  1  0
  2  3  1  0
  3  4  1  0
  4  5  1  0
  5  6  1  0
  6  7  1  0
  7  8  1  0
  8  9  1  0
  9 10  1  0
 10 11  1  0
 11 12  1  0
 12 13  1  0
 13 14  2  0
 14 15  1  0
 15 16  2  0
 16 17  1  0
 17 18  2  0
 10 19  1  0
 19 20  1  0
 20 21  1  0
 21 22  1  0
 22 23  1  0
 23 24  2  0
 24 25  1  0
 25 26  2  0
 26 27  1  0
 27 28  2  0
 19  5  1  0
 28 23  1  0
 21  7  1  0
 18 13  1  0
M  END
>  <ChemBL_ID>  (973) 
CHEMBL429103

>  <Compound_Key>  (973) 
13b

>  <Ki>  (973) 
820.0

>  <database>  (973) 
CHEMBL

>  <Assay_ChEMBL_ID>  (973) 
CHEMBL893122

>  <Document_ChEMBL_ID>  (973) 
CHEMBL1147988

$$$$

     RDKit          2D

 26 29  0  0  0  0  0  0  0  0999 V2000
    0.0575   -4.9892    0.0000 C   0  0  0  0  0  0  0  0  0  0  0  0
    1.2501   -4.0794    0.0000 O   0  0  0  0  0  0  0  0  0  0  0  0
    0.3315   -1.6086    0.0000 C   0  0  0  0  0  0  0  0  0  0  0  0
    1.1187   -1.0476    0.0000 C   0  0  0  0  0  0  0  0  0  0  0  0
    1.2522   -0.0902    0.0000 C   0  0  0  0  0  0  0  0  0  0  0  0
    1.3826    0.7632    0.0000 C   0  0  0  0  0  0  0  0  0  0  0  0
   -0.1051    0.5716    0.0000 C   0  0  0  0  0  0  0  0  0  0  0  0
   -0.8828   -0.7110    0.0000 N   0  0  0  0  0  0  0  0  0  0  0  0
   -2.3759   -0.5668    0.0000 C   0  0  0  0  0  0  0  0  0  0  0  0
   -2.9975    0.7984    0.0000 C   0  0  0  0  0  0  0  0  0  0  0  0
   -4.4905    0.9426    0.0000 C   0  0  0  0  0  0  0  0  0  0  0  0
   -5.1121    2.3078    0.0000 C   0  0  0  0  0  0  0  0  0  0  0  0
   -6.6052    2.4520    0.0000 C   0  0  0  0  0  0  0  0  0  0  0  0
   -7.4766    1.2311    0.0000 C   0  0  0  0  0  0  0  0  0  0  0  0
   -6.8550   -0.1340    0.0000 C   0  0  0  0  0  0  0  0  0  0  0  0
   -5.3620   -0.2783    0.0000 C   0  0  0  0  0  0  0  0  0  0  0  0
   -0.3650   -2.1188    0.0000 C   0  0  0  0  0  0  0  0  0  0  0  0
    1.1227   -1.9272    0.0000 C   0  0  0  0  0  0  0  0  0  0  0  0
    1.9005   -0.6446    0.0000 N   0  0  0  0  0  0  0  0  0  0  0  0
    3.3935   -0.7888    0.0000 C   0  0  0  0  0  0  0  0  0  0  0  0
    4.2650    0.4321    0.0000 C   0  0  0  0  0  0  0  0  0  0  0  0
    5.7580    0.2878    0.0000 C   0  0  0  0  0  0  0  0  0  0  0  0
    6.6295    1.5087    0.0000 C   0  0  0  0  0  0  0  0  0  0  0  0
    6.0079    2.8738    0.0000 C   0  0  0  0  0  0  0  0  0  0  0  0
    4.5148    3.0181    0.0000 C   0  0  0  0  0  0  0  0  0  0  0  0
    3.6434    1.7972    0.0000 C   0  0  0  0  0  0  0  0  0  0  0  0
  1  2  1  0
  2  3  1  0
  3  4  1  0
  4  5  1  0
  5  6  1  0
  6  7  1  0
  7  8  1  0
  8  9  1  0
  9 10  1  0
 10 11  1  0
 11 12  2  0
 12 13  1  0
 13 14  2  0
 14 15  1  0
 15 16  2  0
  8 17  1  0
 17 18  1  0
 18 19  1  0
 19 20  1  0
 20 21  1  0
 21 22  2  0
 22 23  1  0
 23 24  2  0
 24 25  1  0
 25 26  2  0
 17  3  1  0
 26 21  1  0
 19  6  1  0
 16 11  1  0
M  END
>  <ChemBL_ID>  (974) 
CHEMBL244652

>  <Compound_Key>  (974) 
12c

>  <Ki>  (974) 
297.0

>  <database>  (974) 
CHEMBL

>  <Assay_ChEMBL_ID>  (974) 
CHEMBL893122

>  <Document_ChEMBL_ID>  (974) 
CHEMBL1147988

$$$$

     RDKit          2D

 22 24  0  0  0  0  0  0  0  0999 V2000
    5.7200   -3.6195    0.0000 C   0  0  0  0  0  0  0  0  0  0  0  0
    5.3715   -2.1605    0.0000 C   0  0  0  0  0  0  0  0  0  0  0  0
    3.9338   -1.7329    0.0000 C   0  0  0  0  0  0  0  0  0  0  0  0
    3.5852   -0.2739    0.0000 C   0  0  0  0  0  0  0  0  0  0  0  0
    2.1475    0.1537    0.0000 N   0  0  0  0  0  0  0  0  0  0  0  0
    1.1384   -0.9561    0.0000 C   0  0  0  0  0  0  0  0  0  0  0  0
   -0.3585   -0.8591    0.0000 C   0  0  0  0  0  0  0  0  0  0  0  0
   -0.0669   -0.0465    0.0000 C   0  0  0  0  0  0  0  0  0  0  0  0
    0.2475    0.8676    0.0000 C   0  0  0  0  0  0  0  0  0  0  0  0
    1.1277    1.2673    0.0000 C   0  0  0  0  0  0  0  0  0  0  0  0
    0.6994    3.8684    0.0000 O   0  0  0  0  0  0  0  0  0  0  0  0
    2.0442    4.5328    0.0000 C   0  0  0  0  0  0  0  0  0  0  0  0
    1.9090    1.6346    0.0000 C   0  0  0  0  0  0  0  0  0  0  0  0
    0.4121    1.7316    0.0000 C   0  0  0  0  0  0  0  0  0  0  0  0
   -0.5970    0.6218    0.0000 N   0  0  0  0  0  0  0  0  0  0  0  0
   -2.0347    1.0495    0.0000 C   0  0  0  0  0  0  0  0  0  0  0  0
   -3.1240    0.0182    0.0000 C   0  0  0  0  0  0  0  0  0  0  0  0
   -4.5617    0.4458    0.0000 C   0  0  0  0  0  0  0  0  0  0  0  0
   -5.6509   -0.5855    0.0000 C   0  0  0  0  0  0  0  0  0  0  0  0
   -5.3024   -2.0445    0.0000 C   0  0  0  0  0  0  0  0  0  0  0  0
   -3.8647   -2.4721    0.0000 C   0  0  0  0  0  0  0  0  0  0  0  0
   -2.7755   -1.4408    0.0000 C   0  0  0  0  0  0  0  0  0  0  0  0
  1  2  1  0
  2  3  1  0
  3  4  1  0
  4  5  1  0
  5  6  1  0
  6  7  1  0
  7  8  1  0
  8  9  1  0
  9 10  1  0
 10 11  1  0
 11 12  1  0
 10 13  1  0
 13 14  1  0
 14 15  1  0
 15 16  1  0
 16 17  1  0
 17 18  2  0
 18 19  1  0
 19 20  2  0
 20 21  1  0
 21 22  2  0
 13  5  1  0
 22 17  1  0
 15  7  1  0
M  END
>  <ChemBL_ID>  (975) 
CHEMBL244650

>  <Compound_Key>  (975) 
12b

>  <Ki>  (975) 
219.0

>  <database>  (975) 
CHEMBL

>  <Assay_ChEMBL_ID>  (975) 
CHEMBL893122

>  <Document_ChEMBL_ID>  (975) 
CHEMBL1147988

$$$$

     RDKit          2D

 25 28  0  0  0  0  0  0  0  0999 V2000
    1.2488   -4.2800    0.0000 O   0  0  0  0  0  0  0  0  0  0  0  0
    0.3322   -1.8084    0.0000 C   0  0  0  0  0  0  0  0  0  0  0  0
    1.1199   -1.2481    0.0000 C   0  0  0  0  0  0  0  0  0  0  0  0
    1.2542   -0.2909    0.0000 C   0  0  0  0  0  0  0  0  0  0  0  0
    1.3854    0.5625    0.0000 C   0  0  0  0  0  0  0  0  0  0  0  0
   -0.1025    0.3721    0.0000 C   0  0  0  0  0  0  0  0  0  0  0  0
   -0.8813   -0.9098    0.0000 N   0  0  0  0  0  0  0  0  0  0  0  0
   -2.3742   -0.7643    0.0000 C   0  0  0  0  0  0  0  0  0  0  0  0
   -2.9947    0.6013    0.0000 C   0  0  0  0  0  0  0  0  0  0  0  0
   -4.4876    0.7468    0.0000 C   0  0  0  0  0  0  0  0  0  0  0  0
   -5.1081    2.1125    0.0000 C   0  0  0  0  0  0  0  0  0  0  0  0
   -6.6010    2.2580    0.0000 C   0  0  0  0  0  0  0  0  0  0  0  0
   -7.4735    1.0378    0.0000 C   0  0  0  0  0  0  0  0  0  0  0  0
   -6.8530   -0.3278    0.0000 C   0  0  0  0  0  0  0  0  0  0  0  0
   -5.3601   -0.4733    0.0000 C   0  0  0  0  0  0  0  0  0  0  0  0
   -0.3646   -2.3181    0.0000 C   0  0  0  0  0  0  0  0  0  0  0  0
    1.1232   -2.1277    0.0000 C   0  0  0  0  0  0  0  0  0  0  0  0
    1.9021   -0.8457    0.0000 N   0  0  0  0  0  0  0  0  0  0  0  0
    3.3950   -0.9912    0.0000 C   0  0  0  0  0  0  0  0  0  0  0  0
    4.2675    0.2289    0.0000 C   0  0  0  0  0  0  0  0  0  0  0  0
    5.7604    0.0834    0.0000 C   0  0  0  0  0  0  0  0  0  0  0  0
    6.6329    1.3036    0.0000 C   0  0  0  0  0  0  0  0  0  0  0  0
    6.0124    2.6692    0.0000 C   0  0  0  0  0  0  0  0  0  0  0  0
    4.5195    2.8147    0.0000 C   0  0  0  0  0  0  0  0  0  0  0  0
    3.6470    1.5946    0.0000 C   0  0  0  0  0  0  0  0  0  0  0  0
  2  1  1  1
  2  3  1  0
  3  4  1  0
  4  5  1  0
  5  6  1  0
  6  7  1  0
  7  8  1  0
  8  9  1  0
  9 10  1  0
 10 11  2  0
 11 12  1  0
 12 13  2  0
 13 14  1  0
 14 15  2  0
  7 16  1  0
 16 17  1  0
 17 18  1  0
 18 19  1  0
 19 20  1  0
 20 21  2  0
 21 22  1  0
 22 23  2  0
 23 24  1  0
 24 25  2  0
 16  2  1  0
 25 20  1  0
 18  5  1  0
 15 10  1  0
M  END
>  <ChemBL_ID>  (976) 
CHEMBL242077

>  <Compound_Key>  (976) 
8c(R)

>  <Ki>  (976) 
588.0

>  <database>  (976) 
CHEMBL

>  <Assay_ChEMBL_ID>  (976) 
CHEMBL893122

>  <Document_ChEMBL_ID>  (976) 
CHEMBL1147988

$$$$

     RDKit          2D

 25 28  0  0  0  0  0  0  0  0999 V2000
    1.2488   -4.2800    0.0000 O   0  0  0  0  0  0  0  0  0  0  0  0
    0.3322   -1.8084    0.0000 C   0  0  0  0  0  0  0  0  0  0  0  0
    1.1199   -1.2481    0.0000 C   0  0  0  0  0  0  0  0  0  0  0  0
    1.2542   -0.2909    0.0000 C   0  0  0  0  0  0  0  0  0  0  0  0
    1.3854    0.5625    0.0000 C   0  0  0  0  0  0  0  0  0  0  0  0
   -0.1025    0.3721    0.0000 C   0  0  0  0  0  0  0  0  0  0  0  0
   -0.8813   -0.9098    0.0000 N   0  0  0  0  0  0  0  0  0  0  0  0
   -2.3742   -0.7643    0.0000 C   0  0  0  0  0  0  0  0  0  0  0  0
   -2.9947    0.6013    0.0000 C   0  0  0  0  0  0  0  0  0  0  0  0
   -4.4876    0.7468    0.0000 C   0  0  0  0  0  0  0  0  0  0  0  0
   -5.1081    2.1125    0.0000 C   0  0  0  0  0  0  0  0  0  0  0  0
   -6.6010    2.2580    0.0000 C   0  0  0  0  0  0  0  0  0  0  0  0
   -7.4735    1.0378    0.0000 C   0  0  0  0  0  0  0  0  0  0  0  0
   -6.8530   -0.3278    0.0000 C   0  0  0  0  0  0  0  0  0  0  0  0
   -5.3601   -0.4733    0.0000 C   0  0  0  0  0  0  0  0  0  0  0  0
   -0.3646   -2.3181    0.0000 C   0  0  0  0  0  0  0  0  0  0  0  0
    1.1232   -2.1277    0.0000 C   0  0  0  0  0  0  0  0  0  0  0  0
    1.9021   -0.8457    0.0000 N   0  0  0  0  0  0  0  0  0  0  0  0
    3.3950   -0.9912    0.0000 C   0  0  0  0  0  0  0  0  0  0  0  0
    4.2675    0.2289    0.0000 C   0  0  0  0  0  0  0  0  0  0  0  0
    5.7604    0.0834    0.0000 C   0  0  0  0  0  0  0  0  0  0  0  0
    6.6329    1.3036    0.0000 C   0  0  0  0  0  0  0  0  0  0  0  0
    6.0124    2.6692    0.0000 C   0  0  0  0  0  0  0  0  0  0  0  0
    4.5195    2.8147    0.0000 C   0  0  0  0  0  0  0  0  0  0  0  0
    3.6470    1.5946    0.0000 C   0  0  0  0  0  0  0  0  0  0  0  0
  2  1  1  6
  2  3  1  0
  3  4  1  0
  4  5  1  0
  5  6  1  0
  6  7  1  0
  7  8  1  0
  8  9  1  0
  9 10  1  0
 10 11  2  0
 11 12  1  0
 12 13  2  0
 13 14  1  0
 14 15  2  0
  7 16  1  0
 16 17  1  0
 17 18  1  0
 18 19  1  0
 19 20  1  0
 20 21  2  0
 21 22  1  0
 22 23  2  0
 23 24  1  0
 24 25  2  0
 16  2  1  0
 25 20  1  0
 18  5  1  0
 15 10  1  0
M  END
>  <ChemBL_ID>  (977) 
CHEMBL395304

>  <Compound_Key>  (977) 
8c(2S)

>  <Ki>  (977) 
343.0

>  <database>  (977) 
CHEMBL

>  <Assay_ChEMBL_ID>  (977) 
CHEMBL893122

>  <Document_ChEMBL_ID>  (977) 
CHEMBL1147988

$$$$

     RDKit          2D

 18 20  0  0  0  0  0  0  0  0999 V2000
   -4.1634    1.8473    0.0000 C   0  0  0  0  0  0  0  0  0  0  0  0
   -2.9340    0.9879    0.0000 N   0  0  0  0  0  0  0  0  0  0  0  0
   -1.6263    1.7227    0.0000 C   0  0  0  0  0  0  0  0  0  0  0  0
   -0.2364    1.1584    0.0000 C   0  0  0  0  0  0  0  0  0  0  0  0
   -0.7695    0.4793    0.0000 C   0  0  0  0  0  0  0  0  0  0  0  0
   -1.3563   -0.2889    0.0000 C   0  0  0  0  0  0  0  0  0  0  0  0
   -2.3175   -0.3906    0.0000 C   0  0  0  0  0  0  0  0  0  0  0  0
   -2.7318   -2.9939    0.0000 O   0  0  0  0  0  0  0  0  0  0  0  0
   -3.1748   -0.4926    0.0000 C   0  0  0  0  0  0  0  0  0  0  0  0
   -1.7850   -1.0569    0.0000 C   0  0  0  0  0  0  0  0  0  0  0  0
   -0.4773   -0.3221    0.0000 N   0  0  0  0  0  0  0  0  0  0  0  0
    0.7521   -1.1815    0.0000 C   0  0  0  0  0  0  0  0  0  0  0  0
    2.1111   -0.5465    0.0000 C   0  0  0  0  0  0  0  0  0  0  0  0
    3.3405   -1.4059    0.0000 C   0  0  0  0  0  0  0  0  0  0  0  0
    4.6994   -0.7709    0.0000 C   0  0  0  0  0  0  0  0  0  0  0  0
    4.8290    0.7235    0.0000 C   0  0  0  0  0  0  0  0  0  0  0  0
    3.5996    1.5829    0.0000 C   0  0  0  0  0  0  0  0  0  0  0  0
    2.2406    0.9479    0.0000 C   0  0  0  0  0  0  0  0  0  0  0  0
  1  2  1  0
  2  3  1  0
  3  4  1  0
  4  5  1  0
  5  6  1  0
  6  7  1  0
  7  8  1  1
  7  9  1  0
  9 10  1  0
 10 11  1  0
 11 12  1  0
 12 13  1  0
 13 14  2  0
 14 15  1  0
 15 16  2  0
 16 17  1  0
 17 18  2  0
  9  2  1  0
 18 13  1  0
 11  4  1  0
M  END
>  <ChemBL_ID>  (978) 
CHEMBL390022

>  <Compound_Key>  (978) 
8a(2R)

>  <Ki>  (978) 
4180.0

>  <database>  (978) 
CHEMBL

>  <Assay_ChEMBL_ID>  (978) 
CHEMBL893122

>  <Document_ChEMBL_ID>  (978) 
CHEMBL1147988

$$$$

     RDKit          2D

 18 19  0  0  0  0  0  0  0  0999 V2000
   -6.2199    1.1177    0.0000 C   0  0  0  0  0  0  0  0  0  0  0  0
   -4.7212    1.1814    0.0000 C   0  0  0  0  0  0  0  0  0  0  0  0
   -3.9167   -0.0846    0.0000 C   0  0  0  0  0  0  0  0  0  0  0  0
   -4.6109   -1.4143    0.0000 O   0  0  0  0  0  0  0  0  0  0  0  0
   -2.4181   -0.0209    0.0000 C   0  0  0  0  0  0  0  0  0  0  0  0
   -1.7239    1.3088    0.0000 C   0  0  0  0  0  0  0  0  0  0  0  0
   -0.2253    1.3725    0.0000 C   0  0  0  0  0  0  0  0  0  0  0  0
    0.5792    0.1065    0.0000 C   0  0  0  0  0  0  0  0  0  0  0  0
   -0.1149   -1.2232    0.0000 C   0  0  0  0  0  0  0  0  0  0  0  0
   -1.6136   -1.2869    0.0000 C   0  0  0  0  0  0  0  0  0  0  0  0
    0.9352   -2.2943    0.0000 S   0  0  0  0  0  0  0  0  0  0  0  0
    2.2784   -1.6265    0.0000 C   0  0  0  0  0  0  0  0  0  0  0  0
    3.6081   -2.3207    0.0000 O   0  0  0  0  0  0  0  0  0  0  0  0
    2.0584   -0.1427    0.0000 N   0  0  0  0  0  0  0  0  0  0  0  0
    3.1295    0.9074    0.0000 C   0  0  0  0  0  0  0  0  0  0  0  0
    2.7555    2.3600    0.0000 O   0  0  0  0  0  0  0  0  0  0  0  0
    4.5744    0.5049    0.0000 C   0  0  0  0  0  0  0  0  0  0  0  0
    5.6455    1.5550    0.0000 C   0  0  0  0  0  0  0  0  0  0  0  0
  1  2  1  0
  2  3  1  0
  3  4  2  0
  3  5  1  0
  5  6  2  0
  6  7  1  0
  7  8  2  0
  8  9  1  0
  9 10  2  0
  9 11  1  0
 11 12  1  0
 12 13  2  0
 12 14  1  0
 14 15  1  0
 15 16  2  0
 15 17  1  0
 17 18  1  0
 10  5  1  0
 14  8  1  0
M  END
>  <ChemBL_ID>  (979) 
CHEMBL14553

>  <Compound_Key>  (979) 
26

>  <Ki>  (979) 
670.0

>  <database>  (979) 
CHEMBL

>  <Assay_ChEMBL_ID>  (979) 
CHEMBL805222

>  <Document_ChEMBL_ID>  (979) 
CHEMBL1131315

$$$$

     RDKit          2D

 21 23  0  0  0  0  0  0  0  0999 V2000
   -5.7326    2.4872    0.0000 C   0  0  0  0  0  0  0  0  0  0  0  0
   -5.2040    1.0834    0.0000 C   0  0  0  0  0  0  0  0  0  0  0  0
   -6.1554   -0.0763    0.0000 C   0  0  0  0  0  0  0  0  0  0  0  0
   -3.7240    0.8393    0.0000 C   0  0  0  0  0  0  0  0  0  0  0  0
   -3.1954   -0.5645    0.0000 C   0  0  0  0  0  0  0  0  0  0  0  0
   -1.7154   -0.8086    0.0000 N   0  0  0  0  0  0  0  0  0  0  0  0
   -1.1868   -2.2124    0.0000 C   0  0  0  0  0  0  0  0  0  0  0  0
    0.2932   -2.4565    0.0000 C   0  0  0  0  0  0  0  0  0  0  0  0
    1.2446   -1.2968    0.0000 C   0  0  0  0  0  0  0  0  0  0  0  0
    1.7732   -2.7006    0.0000 C   0  0  0  0  0  0  0  0  0  0  0  0
    2.1960   -0.1371    0.0000 C   0  0  0  0  0  0  0  0  0  0  0  0
    3.6760   -0.3812    0.0000 C   0  0  0  0  0  0  0  0  0  0  0  0
    4.6274    0.7784    0.0000 C   0  0  0  0  0  0  0  0  0  0  0  0
    6.1074    0.5343    0.0000 O   0  0  0  0  0  0  0  0  0  0  0  0
    4.0988    2.1822    0.0000 C   0  0  0  0  0  0  0  0  0  0  0  0
    2.6188    2.4263    0.0000 C   0  0  0  0  0  0  0  0  0  0  0  0
    1.6674    1.2666    0.0000 C   0  0  0  0  0  0  0  0  0  0  0  0
    0.1874    1.5107    0.0000 C   0  0  0  0  0  0  0  0  0  0  0  0
   -0.7640    0.3511    0.0000 C   0  0  0  0  0  0  0  0  0  0  0  0
   -0.2354   -1.0527    0.0000 C   0  0  0  0  0  0  0  0  0  0  0  0
   -0.5769   -1.7730    0.0000 C   0  0  0  0  0  0  0  0  0  0  0  0
  1  2  1  0
  2  3  1  0
  2  4  2  0
  4  5  1  0
  5  6  1  0
  6  7  1  0
  7  8  1  0
  8  9  1  0
  9 10  1  1
  9 11  1  0
 11 12  2  0
 12 13  1  0
 13 14  1  0
 13 15  2  0
 15 16  1  0
 16 17  2  0
 17 18  1  0
 19 18  1  1
 19 20  1  0
 20 21  1  6
 19  6  1  0
 20  9  1  0
 17 11  1  0
M  END
>  <Compound_Key>  (980) 
(+)-pentaz.

>  <Ki>  (980) 
1440.0

>  <database>  (980) 
Literature

>  <Assay_ChEMBL_ID>  (980) 
CHEMBL805218

>  <Document_ChEMBL_ID>  (980) 
CHEMBL1131505

$$$$

     RDKit          2D

 25 28  0  0  0  0  0  0  0  0999 V2000
   -4.7337   -4.0745    0.0000 C   0  0  0  0  0  0  0  0  0  0  0  0
   -3.8151   -2.8887    0.0000 O   0  0  0  0  0  0  0  0  0  0  0  0
   -4.3828   -1.5002    0.0000 C   0  0  0  0  0  0  0  0  0  0  0  0
   -5.8690   -1.2977    0.0000 C   0  0  0  0  0  0  0  0  0  0  0  0
   -6.4367    0.0908    0.0000 C   0  0  0  0  0  0  0  0  0  0  0  0
   -5.5181    1.2766    0.0000 C   0  0  0  0  0  0  0  0  0  0  0  0
   -4.0319    1.0740    0.0000 C   0  0  0  0  0  0  0  0  0  0  0  0
   -3.4642   -0.3144    0.0000 C   0  0  0  0  0  0  0  0  0  0  0  0
   -1.9780   -0.5170    0.0000 C   0  0  0  0  0  0  0  0  0  0  0  0
   -1.0594    0.6688    0.0000 C   0  0  0  0  0  0  0  0  0  0  0  0
    0.4269    0.4662    0.0000 N   0  0  0  0  0  0  0  0  0  0  0  0
    0.9946   -0.9222    0.0000 C   0  0  0  0  0  0  0  0  0  0  0  0
    2.4808   -1.1248    0.0000 C   0  0  0  0  0  0  0  0  0  0  0  0
    3.3994    0.0610    0.0000 N   0  0  0  0  0  0  0  0  0  0  0  0
    4.8856   -0.1416    0.0000 C   0  0  0  0  0  0  0  0  0  0  0  0
    5.4533   -1.5300    0.0000 C   0  0  0  0  0  0  0  0  0  0  0  0
    6.9396   -1.7326    0.0000 C   0  0  0  0  0  0  0  0  0  0  0  0
    7.8582   -0.5468    0.0000 C   0  0  0  0  0  0  0  0  0  0  0  0
    7.2905    0.8417    0.0000 C   0  0  0  0  0  0  0  0  0  0  0  0
    5.8042    1.0443    0.0000 C   0  0  0  0  0  0  0  0  0  0  0  0
    2.8317    1.4495    0.0000 C   0  0  0  0  0  0  0  0  0  0  0  0
    1.3455    1.6521    0.0000 C   0  0  0  0  0  0  0  0  0  0  0  0
   -1.6270    2.0573    0.0000 C   0  0  0  0  0  0  0  0  0  0  0  0
   -3.1133    2.2599    0.0000 C   0  0  0  0  0  0  0  0  0  0  0  0
   -3.6810    3.6483    0.0000 C   0  0  0  0  0  0  0  0  0  0  0  0
  1  2  1  0
  2  3  1  0
  3  4  2  0
  4  5  1  0
  5  6  2  0
  6  7  1  0
  7  8  2  0
  8  9  1  0
  9 10  1  0
 10 11  1  0
 11 12  1  0
 12 13  1  0
 13 14  1  0
 14 15  1  0
 15 16  1  0
 16 17  1  0
 17 18  1  0
 18 19  1  0
 19 20  1  0
 14 21  1  0
 21 22  1  0
 10 23  1  0
 23 24  1  0
 24 25  1  0
  8  3  1  0
 22 11  1  0
 24  7  1  0
 20 15  1  0
M  END
>  <Compound_Key>  (981) 
29

>  <Ki>  (981) 
7.9

>  <database>  (981) 
Literature

>  <Assay_ChEMBL_ID>  (981) 
CHEMBL807586

>  <Document_ChEMBL_ID>  (981) 
CHEMBL1148440

$$$$

     RDKit          2D

 27 30  0  0  0  0  0  0  0  0999 V2000
   -9.4439   -0.8282    0.0000 C   0  0  0  0  0  0  0  0  0  0  0  0
   -8.0074   -1.2600    0.0000 O   0  0  0  0  0  0  0  0  0  0  0  0
   -6.9152   -0.2320    0.0000 C   0  0  0  0  0  0  0  0  0  0  0  0
   -7.2594    1.2280    0.0000 C   0  0  0  0  0  0  0  0  0  0  0  0
   -6.1671    2.2561    0.0000 C   0  0  0  0  0  0  0  0  0  0  0  0
   -4.7306    1.8242    0.0000 C   0  0  0  0  0  0  0  0  0  0  0  0
   -4.3864    0.3642    0.0000 C   0  0  0  0  0  0  0  0  0  0  0  0
   -5.4787   -0.6638    0.0000 C   0  0  0  0  0  0  0  0  0  0  0  0
   -5.1345   -2.1238    0.0000 C   0  0  0  0  0  0  0  0  0  0  0  0
   -3.6980   -2.5557    0.0000 C   0  0  0  0  0  0  0  0  0  0  0  0
   -2.6057   -1.5276    0.0000 C   0  0  0  0  0  0  0  0  0  0  0  0
   -2.9500   -0.0676    0.0000 C   0  0  0  0  0  0  0  0  0  0  0  0
   -1.8577    0.9604    0.0000 C   0  0  0  0  0  0  0  0  0  0  0  0
   -0.4212    0.5286    0.0000 C   0  0  0  0  0  0  0  0  0  0  0  0
    0.6711    1.5566    0.0000 C   0  0  0  0  0  0  0  0  0  0  0  0
    2.1075    1.1248    0.0000 N   0  0  0  0  0  0  0  0  0  0  0  0
    2.4518   -0.3352    0.0000 C   0  0  0  0  0  0  0  0  0  0  0  0
    3.8882   -0.7671    0.0000 C   0  0  0  0  0  0  0  0  0  0  0  0
    4.9805    0.2610    0.0000 N   0  0  0  0  0  0  0  0  0  0  0  0
    6.4170   -0.1709    0.0000 C   0  0  0  0  0  0  0  0  0  0  0  0
    6.7612   -1.6309    0.0000 C   0  0  0  0  0  0  0  0  0  0  0  0
    8.1977   -2.0627    0.0000 C   0  0  0  0  0  0  0  0  0  0  0  0
    9.2899   -1.0347    0.0000 C   0  0  0  0  0  0  0  0  0  0  0  0
    8.9457    0.4253    0.0000 C   0  0  0  0  0  0  0  0  0  0  0  0
    7.5092    0.8572    0.0000 C   0  0  0  0  0  0  0  0  0  0  0  0
    4.6363    1.7210    0.0000 C   0  0  0  0  0  0  0  0  0  0  0  0
    3.1998    2.1528    0.0000 C   0  0  0  0  0  0  0  0  0  0  0  0
  1  2  1  0
  2  3  1  0
  3  4  2  0
  4  5  1  0
  5  6  2  0
  6  7  1  0
  7  8  2  0
  8  9  1  0
  9 10  1  0
 10 11  1  0
 11 12  1  0
 12 13  1  6
 13 14  1  0
 14 15  1  0
 15 16  1  0
 16 17  1  0
 17 18  1  0
 18 19  1  0
 19 20  1  0
 20 21  1  0
 21 22  1  0
 22 23  1  0
 23 24  1  0
 24 25  1  0
 19 26  1  0
 26 27  1  0
  8  3  1  0
 27 16  1  0
 12  7  1  0
 25 20  1  0
M  END
>  <Compound_Key>  (982) 
(+)-S-PB28

>  <Ki>  (982) 
1.18

>  <database>  (982) 
NewLiterature

>  <Document_ChEMBL_ID>  (982) 
10.1038/s41598-023-39663-w

$$$$

     RDKit          2D

 20 22  0  0  0  0  0  0  0  0999 V2000
   -7.2865   -0.0384    0.0000 C   0  0  0  0  0  0  0  0  0  0  0  0
   -6.6993    1.3419    0.0000 C   0  0  0  0  0  0  0  0  0  0  0  0
   -5.2104    1.5236    0.0000 C   0  0  0  0  0  0  0  0  0  0  0  0
   -4.3086    0.3249    0.0000 C   0  0  0  0  0  0  0  0  0  0  0  0
   -2.8196    0.5066    0.0000 C   0  0  0  0  0  0  0  0  0  0  0  0
   -1.9178   -0.6920    0.0000 C   0  0  0  0  0  0  0  0  0  0  0  0
   -0.4288   -0.5104    0.0000 N   0  0  0  0  0  0  0  0  0  0  0  0
    0.4730   -1.7090    0.0000 C   0  0  0  0  0  0  0  0  0  0  0  0
    1.9619   -1.5273    0.0000 C   0  0  0  0  0  0  0  0  0  0  0  0
    2.5491   -0.1470    0.0000 N   0  0  0  0  0  0  0  0  0  0  0  0
    4.0380    0.0347    0.0000 C   0  0  0  0  0  0  0  0  0  0  0  0
    4.9398   -1.1640    0.0000 C   0  0  0  0  0  0  0  0  0  0  0  0
    6.4288   -0.9823    0.0000 C   0  0  0  0  0  0  0  0  0  0  0  0
    7.0159    0.3980    0.0000 C   0  0  0  0  0  0  0  0  0  0  0  0
    6.1141    1.5967    0.0000 C   0  0  0  0  0  0  0  0  0  0  0  0
    4.6252    1.4150    0.0000 N   0  0  0  0  0  0  0  0  0  0  0  0
    1.6473    1.0516    0.0000 C   0  0  0  0  0  0  0  0  0  0  0  0
    0.1583    0.8700    0.0000 C   0  0  0  0  0  0  0  0  0  0  0  0
   -4.8957   -1.0554    0.0000 C   0  0  0  0  0  0  0  0  0  0  0  0
   -6.3847   -1.2371    0.0000 C   0  0  0  0  0  0  0  0  0  0  0  0
  1  2  2  0
  2  3  1  0
  3  4  2  0
  4  5  1  0
  5  6  1  0
  6  7  1  0
  7  8  1  0
  8  9  1  0
  9 10  1  0
 10 11  1  0
 11 12  2  0
 12 13  1  0
 13 14  2  0
 14 15  1  0
 15 16  2  0
 10 17  1  0
 17 18  1  0
  4 19  1  0
 19 20  2  0
 20  1  1  0
 18  7  1  0
 16 11  1  0
M  END
>  <ChemBL_ID>  (983) 
CHEMBL143950

>  <Compound_Key>  (983) 
17

>  <Ki>  (983) 
119.0

>  <database>  (983) 
Literature

>  <Assay_ChEMBL_ID>  (983) 
CHEMBL808278

>  <Document_ChEMBL_ID>  (983) 
CHEMBL1135051

$$$$

     RDKit          2D

 14 15  0  0  0  0  0  0  0  0999 V2000
   -4.9087   -0.3028    0.0000 C   0  0  0  0  0  0  0  0  0  0  0  0
   -4.4233    1.1165    0.0000 C   0  0  0  0  0  0  0  0  0  0  0  0
   -2.9515    1.4058    0.0000 C   0  0  0  0  0  0  0  0  0  0  0  0
   -1.9651    0.2757    0.0000 C   0  0  0  0  0  0  0  0  0  0  0  0
   -0.4932    0.5650    0.0000 C   0  0  0  0  0  0  0  0  0  0  0  0
    0.4932   -0.5650    0.0000 C   0  0  0  0  0  0  0  0  0  0  0  0
    1.9651   -0.2757    0.0000 N   0  0  0  0  0  0  0  0  0  0  0  0
    2.9515   -1.4058    0.0000 C   0  0  0  0  0  0  0  0  0  0  0  0
    4.4233   -1.1165    0.0000 C   0  0  0  0  0  0  0  0  0  0  0  0
    4.9087    0.3028    0.0000 C   0  0  0  0  0  0  0  0  0  0  0  0
    3.9223    1.4328    0.0000 C   0  0  0  0  0  0  0  0  0  0  0  0
    2.4505    1.1435    0.0000 C   0  0  0  0  0  0  0  0  0  0  0  0
   -2.4505   -1.1435    0.0000 C   0  0  0  0  0  0  0  0  0  0  0  0
   -3.9223   -1.4328    0.0000 C   0  0  0  0  0  0  0  0  0  0  0  0
  1  2  2  0
  2  3  1  0
  3  4  2  0
  4  5  1  0
  5  6  1  0
  6  7  1  0
  7  8  1  0
  8  9  1  0
  9 10  1  0
 10 11  1  0
 11 12  1  0
  4 13  1  0
 13 14  2  0
 14  1  1  0
 12  7  1  0
M  END
>  <ChemBL_ID>  (984) 
CHEMBL75228

>  <Compound_Key>  (984) 
9

>  <Ki>  (984) 
112.0

>  <database>  (984) 
CHEMBL

>  <Assay_ChEMBL_ID>  (984) 
CHEMBL808278

>  <Document_ChEMBL_ID>  (984) 
CHEMBL1135051

$$$$

     RDKit          2D

 27 29  0  0  0  0  0  0  0  0999 V2000
   -9.7505   -1.7334    0.0000 C   0  0  0  0  0  0  0  0  0  0  0  0
   -8.2557   -1.6083    0.0000 O   0  0  0  0  0  0  0  0  0  0  0  0
   -7.6167   -0.2512    0.0000 C   0  0  0  0  0  0  0  0  0  0  0  0
   -8.4724    0.9807    0.0000 C   0  0  0  0  0  0  0  0  0  0  0  0
   -7.8334    2.3378    0.0000 C   0  0  0  0  0  0  0  0  0  0  0  0
   -6.3386    2.4629    0.0000 C   0  0  0  0  0  0  0  0  0  0  0  0
   -5.4829    1.2309    0.0000 C   0  0  0  0  0  0  0  0  0  0  0  0
   -3.9881    1.3560    0.0000 C   0  0  0  0  0  0  0  0  0  0  0  0
   -3.1324    0.1241    0.0000 C   0  0  0  0  0  0  0  0  0  0  0  0
   -1.6376    0.2492    0.0000 C   0  0  0  0  0  0  0  0  0  0  0  0
   -0.7819   -0.9828    0.0000 C   0  0  0  0  0  0  0  0  0  0  0  0
   -1.4209   -2.3398    0.0000 O   0  0  0  0  0  0  0  0  0  0  0  0
    0.7129   -0.8577    0.0000 N   0  0  0  0  0  0  0  0  0  0  0  0
    1.5686   -2.0896    0.0000 C   0  0  0  0  0  0  0  0  0  0  0  0
    3.0634   -1.9645    0.0000 C   0  0  0  0  0  0  0  0  0  0  0  0
    3.7025   -0.6075    0.0000 N   0  0  0  0  0  0  0  0  0  0  0  0
    5.1972   -0.4823    0.0000 C   0  0  0  0  0  0  0  0  0  0  0  0
    6.0530   -1.7143    0.0000 C   0  0  0  0  0  0  0  0  0  0  0  0
    7.5477   -1.5892    0.0000 C   0  0  0  0  0  0  0  0  0  0  0  0
    8.1868   -0.2321    0.0000 C   0  0  0  0  0  0  0  0  0  0  0  0
    7.3310    0.9998    0.0000 C   0  0  0  0  0  0  0  0  0  0  0  0
    7.9701    2.3569    0.0000 O   0  0  0  0  0  0  0  0  0  0  0  0
    9.4649    2.4820    0.0000 C   0  0  0  0  0  0  0  0  0  0  0  0
    5.8363    0.8747    0.0000 C   0  0  0  0  0  0  0  0  0  0  0  0
    2.8467    0.6245    0.0000 C   0  0  0  0  0  0  0  0  0  0  0  0
    1.3519    0.4994    0.0000 C   0  0  0  0  0  0  0  0  0  0  0  0
   -6.1219   -0.1261    0.0000 C   0  0  0  0  0  0  0  0  0  0  0  0
  1  2  1  0
  2  3  1  0
  3  4  2  0
  4  5  1  0
  5  6  2  0
  6  7  1  0
  7  8  1  0
  8  9  1  0
  9 10  1  0
 10 11  1  0
 11 12  2  0
 11 13  1  0
 13 14  1  0
 14 15  1  0
 15 16  1  0
 16 17  1  0
 17 18  2  0
 18 19  1  0
 19 20  2  0
 20 21  1  0
 21 22  1  0
 22 23  1  0
 21 24  2  0
 16 25  1  0
 25 26  1  0
  7 27  2  0
 27  3  1  0
 26 13  1  0
 24 17  1  0
M  END
>  <Compound_Key>  (985) 
19

>  <Ki>  (985) 
11.8

>  <database>  (985) 
Literature

>  <Assay_ChEMBL_ID>  (985) 
CHEMBL808908

>  <Document_ChEMBL_ID>  (985) 
CHEMBL1131417

$$$$

     RDKit          2D

 26 27  0  0  0  0  0  0  0  0999 V2000
   -9.3976   -1.1219    0.0000 C   0  0  0  0  0  0  0  0  0  0  0  0
   -8.5569    0.1203    0.0000 C   0  0  0  0  0  0  0  0  0  0  0  0
   -7.7161    1.3626    0.0000 C   0  0  0  0  0  0  0  0  0  0  0  0
   -9.7991    0.9611    0.0000 C   0  0  0  0  0  0  0  0  0  0  0  0
   -7.3147   -0.7204    0.0000 O   0  0  0  0  0  0  0  0  0  0  0  0
   -5.9654   -0.0650    0.0000 C   0  0  0  0  0  0  0  0  0  0  0  0
   -5.8584    1.4312    0.0000 O   0  0  0  0  0  0  0  0  0  0  0  0
   -4.7232   -0.9058    0.0000 N   0  0  0  0  0  0  0  0  0  0  0  0
   -3.3740   -0.2503    0.0000 C   0  0  0  0  0  0  0  0  0  0  0  0
   -2.1317   -1.0911    0.0000 C   0  0  0  0  0  0  0  0  0  0  0  0
   -2.2388   -2.5873    0.0000 O   0  0  0  0  0  0  0  0  0  0  0  0
   -0.7825   -0.4357    0.0000 N   0  0  0  0  0  0  0  0  0  0  0  0
   -0.6755    1.0605    0.0000 C   0  0  0  0  0  0  0  0  0  0  0  0
    0.6737    1.7159    0.0000 C   0  0  0  0  0  0  0  0  0  0  0  0
    1.9159    0.8752    0.0000 N   0  0  0  0  0  0  0  0  0  0  0  0
    3.2652    1.5306    0.0000 C   0  0  0  0  0  0  0  0  0  0  0  0
    4.5074    0.6898    0.0000 C   0  0  0  0  0  0  0  0  0  0  0  0
    5.8566    1.3453    0.0000 C   0  0  0  0  0  0  0  0  0  0  0  0
    7.0989    0.5045    0.0000 C   0  0  0  0  0  0  0  0  0  0  0  0
    6.9919   -0.9917    0.0000 C   0  0  0  0  0  0  0  0  0  0  0  0
    8.2341   -1.8324    0.0000 C   0  0  0  0  0  0  0  0  0  0  0  0
    9.5833   -1.1770    0.0000 C   0  0  0  0  0  0  0  0  0  0  0  0
    9.6903    0.3192    0.0000 C   0  0  0  0  0  0  0  0  0  0  0  0
    8.4481    1.1599    0.0000 C   0  0  0  0  0  0  0  0  0  0  0  0
    1.8089   -0.6210    0.0000 C   0  0  0  0  0  0  0  0  0  0  0  0
    0.4597   -1.2764    0.0000 C   0  0  0  0  0  0  0  0  0  0  0  0
  1  2  1  0
  2  3  1  0
  2  4  1  0
  2  5  1  0
  5  6  1  0
  6  7  2  0
  6  8  1  0
  8  9  1  0
  9 10  1  0
 10 11  2  0
 10 12  1  0
 12 13  1  0
 13 14  1  0
 14 15  1  0
 15 16  1  0
 16 17  1  0
 17 18  1  0
 18 19  1  0
 19 20  2  0
 20 21  1  0
 21 22  2  0
 22 23  1  0
 23 24  2  0
 15 25  1  0
 25 26  1  0
 26 12  1  0
 24 19  1  0
M  END
>  <Compound_Key>  (986) 
24

>  <Ki>  (986) 
175.0

>  <database>  (986) 
Literature

>  <Assay_ChEMBL_ID>  (986) 
CHEMBL808908

>  <Document_ChEMBL_ID>  (986) 
CHEMBL1131417

$$$$

     RDKit          2D

 27 30  0  0  0  0  0  0  0  0999 V2000
    8.2284    0.6808    0.0000 C   0  0  0  0  0  0  0  0  0  0  0  0
    6.9306    1.4330    0.0000 O   0  0  0  0  0  0  0  0  0  0  0  0
    5.6303    0.6851    0.0000 C   0  0  0  0  0  0  0  0  0  0  0  0
    5.6278   -0.8149    0.0000 C   0  0  0  0  0  0  0  0  0  0  0  0
    4.3275   -1.5627    0.0000 C   0  0  0  0  0  0  0  0  0  0  0  0
    3.0297   -0.8106    0.0000 C   0  0  0  0  0  0  0  0  0  0  0  0
    3.0322    0.6894    0.0000 C   0  0  0  0  0  0  0  0  0  0  0  0
    1.7344    1.4416    0.0000 C   0  0  0  0  0  0  0  0  0  0  0  0
    0.4342    0.6937    0.0000 C   0  0  0  0  0  0  0  0  0  0  0  0
   -0.8636    1.4459    0.0000 C   0  0  0  0  0  0  0  0  0  0  0  0
   -0.8611    2.9459    0.0000 O   0  0  0  0  0  0  0  0  0  0  0  0
   -2.1639    0.6980    0.0000 C   0  0  0  0  0  0  0  0  0  0  0  0
   -2.1664   -0.8020    0.0000 C   0  0  0  0  0  0  0  0  0  0  0  0
   -3.4642   -0.0498    0.0000 C   0  0  0  0  0  0  0  0  0  0  0  0
   -3.4617    1.4502    0.0000 C   0  0  0  0  0  0  0  0  0  0  0  0
   -4.7595    2.2023    0.0000 C   0  0  0  0  0  0  0  0  0  0  0  0
   -6.0598    1.4545    0.0000 C   0  0  0  0  0  0  0  0  0  0  0  0
   -6.0623   -0.0455    0.0000 C   0  0  0  0  0  0  0  0  0  0  0  0
   -7.3625   -0.7933    0.0000 O   0  0  0  0  0  0  0  0  0  0  0  0
   -4.7645   -0.7977    0.0000 C   0  0  0  0  0  0  0  0  0  0  0  0
   -2.1689   -2.3020    0.0000 C   0  0  0  0  0  0  0  0  0  0  0  0
   -0.8711   -3.0541    0.0000 C   0  0  0  0  0  0  0  0  0  0  0  0
    0.4292   -2.3063    0.0000 N   0  0  0  0  0  0  0  0  0  0  0  0
    1.7270   -3.0584    0.0000 C   0  0  0  0  0  0  0  0  0  0  0  0
    0.4317   -0.8063    0.0000 C   0  0  0  0  0  0  0  0  0  0  0  0
   -0.8661   -0.0541    0.0000 C   0  0  0  0  0  0  0  0  0  0  0  0
    4.3325    1.4373    0.0000 C   0  0  0  0  0  0  0  0  0  0  0  0
  1  2  1  0
  2  3  1  0
  3  4  2  0
  4  5  1  0
  5  6  2  0
  6  7  1  0
  7  8  1  0
  8  9  2  0
  9 10  1  0
 10 11  2  0
 10 12  1  0
 12 13  1  0
 13 14  1  6
 14 15  2  0
 15 16  1  0
 16 17  2  0
 17 18  1  0
 18 19  1  0
 18 20  2  0
 13 21  1  0
 21 22  1  0
 22 23  1  0
 23 24  1  0
 25 23  1  1
 25 26  1  0
  7 27  2  0
 27  3  1  0
 25  9  1  0
 26 13  1  0
 20 14  1  0
M  END
>  <ChemBL_ID>  (987) 
CHEMBL145296

>  <Compound_Key>  (987) 
(-)-6

>  <Ki>  (987) 
46.3

>  <database>  (987) 
CHEMBL

>  <Assay_ChEMBL_ID>  (987) 
CHEMBL809526

>  <Document_ChEMBL_ID>  (987) 
CHEMBL1128667

$$$$

     RDKit          2D

 27 30  0  0  0  0  0  0  0  0999 V2000
    8.2284    0.6808    0.0000 C   0  0  0  0  0  0  0  0  0  0  0  0
    6.9306    1.4330    0.0000 O   0  0  0  0  0  0  0  0  0  0  0  0
    5.6303    0.6851    0.0000 C   0  0  0  0  0  0  0  0  0  0  0  0
    5.6278   -0.8149    0.0000 C   0  0  0  0  0  0  0  0  0  0  0  0
    4.3275   -1.5627    0.0000 C   0  0  0  0  0  0  0  0  0  0  0  0
    3.0297   -0.8106    0.0000 C   0  0  0  0  0  0  0  0  0  0  0  0
    3.0322    0.6894    0.0000 C   0  0  0  0  0  0  0  0  0  0  0  0
    1.7344    1.4416    0.0000 C   0  0  0  0  0  0  0  0  0  0  0  0
    0.4342    0.6937    0.0000 C   0  0  0  0  0  0  0  0  0  0  0  0
   -0.8636    1.4459    0.0000 C   0  0  0  0  0  0  0  0  0  0  0  0
   -0.8611    2.9459    0.0000 O   0  0  0  0  0  0  0  0  0  0  0  0
   -2.1639    0.6980    0.0000 C   0  0  0  0  0  0  0  0  0  0  0  0
   -2.1664   -0.8020    0.0000 C   0  0  0  0  0  0  0  0  0  0  0  0
   -3.4642   -0.0498    0.0000 C   0  0  0  0  0  0  0  0  0  0  0  0
   -3.4617    1.4502    0.0000 C   0  0  0  0  0  0  0  0  0  0  0  0
   -4.7595    2.2023    0.0000 C   0  0  0  0  0  0  0  0  0  0  0  0
   -6.0598    1.4545    0.0000 C   0  0  0  0  0  0  0  0  0  0  0  0
   -6.0623   -0.0455    0.0000 C   0  0  0  0  0  0  0  0  0  0  0  0
   -7.3625   -0.7933    0.0000 O   0  0  0  0  0  0  0  0  0  0  0  0
   -4.7645   -0.7977    0.0000 C   0  0  0  0  0  0  0  0  0  0  0  0
   -2.1689   -2.3020    0.0000 C   0  0  0  0  0  0  0  0  0  0  0  0
   -0.8711   -3.0541    0.0000 C   0  0  0  0  0  0  0  0  0  0  0  0
    0.4292   -2.3063    0.0000 N   0  0  0  0  0  0  0  0  0  0  0  0
    1.7270   -3.0584    0.0000 C   0  0  0  0  0  0  0  0  0  0  0  0
    0.4317   -0.8063    0.0000 C   0  0  0  0  0  0  0  0  0  0  0  0
   -0.8661   -0.0541    0.0000 C   0  0  0  0  0  0  0  0  0  0  0  0
    4.3325    1.4373    0.0000 C   0  0  0  0  0  0  0  0  0  0  0  0
  1  2  1  0
  2  3  1  0
  3  4  2  0
  4  5  1  0
  5  6  2  0
  6  7  1  0
  7  8  1  0
  8  9  2  0
  9 10  1  0
 10 11  2  0
 10 12  1  0
 12 13  1  0
 13 14  1  0
 14 15  2  0
 15 16  1  0
 16 17  2  0
 17 18  1  0
 18 19  1  0
 18 20  2  0
 13 21  1  0
 21 22  1  0
 22 23  1  0
 23 24  1  0
 23 25  1  0
 25 26  1  0
  7 27  2  0
 27  3  1  0
 25  9  1  0
 26 13  1  0
 20 14  1  0
M  END
>  <ChemBL_ID>  (988) 
CHEMBL145296

>  <Compound_Key>  (988) 
6

>  <Ki>  (988) 
44.3

>  <database>  (988) 
CHEMBL

>  <Assay_ChEMBL_ID>  (988) 
CHEMBL809526

>  <Document_ChEMBL_ID>  (988) 
CHEMBL1128667

$$$$

     RDKit          2D

 27 30  0  0  0  0  0  0  0  0999 V2000
    7.2757   -1.8984    0.0000 C   0  0  0  0  0  0  0  0  0  0  0  0
    7.0855   -0.4105    0.0000 O   0  0  0  0  0  0  0  0  0  0  0  0
    5.7019    0.1687    0.0000 C   0  0  0  0  0  0  0  0  0  0  0  0
    4.5084   -0.7399    0.0000 C   0  0  0  0  0  0  0  0  0  0  0  0
    3.1248   -0.1607    0.0000 C   0  0  0  0  0  0  0  0  0  0  0  0
    2.9346    1.3272    0.0000 C   0  0  0  0  0  0  0  0  0  0  0  0
    1.5510    1.9065    0.0000 C   0  0  0  0  0  0  0  0  0  0  0  0
    0.3575    0.9978    0.0000 C   0  0  0  0  0  0  0  0  0  0  0  0
   -1.0261    1.5771    0.0000 C   0  0  0  0  0  0  0  0  0  0  0  0
   -1.2163    3.0650    0.0000 O   0  0  0  0  0  0  0  0  0  0  0  0
   -2.2196    0.6684    0.0000 C   0  0  0  0  0  0  0  0  0  0  0  0
   -2.0294   -0.8195    0.0000 C   0  0  0  0  0  0  0  0  0  0  0  0
   -3.4131   -0.2402    0.0000 C   0  0  0  0  0  0  0  0  0  0  0  0
   -3.6033    1.2477    0.0000 C   0  0  0  0  0  0  0  0  0  0  0  0
   -4.9869    1.8269    0.0000 C   0  0  0  0  0  0  0  0  0  0  0  0
   -6.1804    0.9183    0.0000 C   0  0  0  0  0  0  0  0  0  0  0  0
   -5.9902   -0.5696    0.0000 C   0  0  0  0  0  0  0  0  0  0  0  0
   -7.1836   -1.4783    0.0000 O   0  0  0  0  0  0  0  0  0  0  0  0
   -4.6065   -1.1489    0.0000 C   0  0  0  0  0  0  0  0  0  0  0  0
   -1.8392   -2.3074    0.0000 C   0  0  0  0  0  0  0  0  0  0  0  0
   -0.4556   -2.8866    0.0000 C   0  0  0  0  0  0  0  0  0  0  0  0
    0.7379   -1.9780    0.0000 N   0  0  0  0  0  0  0  0  0  0  0  0
    2.1215   -2.5572    0.0000 C   0  0  0  0  0  0  0  0  0  0  0  0
    0.5477   -0.4901    0.0000 C   0  0  0  0  0  0  0  0  0  0  0  0
   -0.8360    0.0892    0.0000 C   0  0  0  0  0  0  0  0  0  0  0  0
    4.1281    2.2359    0.0000 C   0  0  0  0  0  0  0  0  0  0  0  0
    5.5117    1.6566    0.0000 C   0  0  0  0  0  0  0  0  0  0  0  0
  1  2  1  0
  2  3  1  0
  3  4  2  0
  4  5  1  0
  5  6  2  0
  6  7  1  0
  7  8  2  0
  8  9  1  0
  9 10  2  0
  9 11  1  0
 11 12  1  0
 12 13  1  1
 13 14  2  0
 14 15  1  0
 15 16  2  0
 16 17  1  0
 17 18  1  0
 17 19  2  0
 12 20  1  0
 20 21  1  0
 21 22  1  0
 22 23  1  0
 24 22  1  6
 24 25  1  0
  6 26  1  0
 26 27  2  0
 27  3  1  0
 24  8  1  0
 25 12  1  0
 19 13  1  0
M  END
>  <ChemBL_ID>  (989) 
CHEMBL143800

>  <Compound_Key>  (989) 
(+)-4

>  <Ki>  (989) 
21.6

>  <database>  (989) 
SRSLDB

>  <Assay_ChEMBL_ID>  (989) 
CHEMBL809526

>  <Document_ChEMBL_ID>  (989) 
CHEMBL1128667

$$$$

     RDKit          2D

 27 30  0  0  0  0  0  0  0  0999 V2000
    7.2757   -1.8984    0.0000 C   0  0  0  0  0  0  0  0  0  0  0  0
    7.0855   -0.4105    0.0000 O   0  0  0  0  0  0  0  0  0  0  0  0
    5.7019    0.1687    0.0000 C   0  0  0  0  0  0  0  0  0  0  0  0
    4.5084   -0.7399    0.0000 C   0  0  0  0  0  0  0  0  0  0  0  0
    3.1248   -0.1607    0.0000 C   0  0  0  0  0  0  0  0  0  0  0  0
    2.9346    1.3272    0.0000 C   0  0  0  0  0  0  0  0  0  0  0  0
    1.5510    1.9065    0.0000 C   0  0  0  0  0  0  0  0  0  0  0  0
    0.3575    0.9978    0.0000 C   0  0  0  0  0  0  0  0  0  0  0  0
   -1.0261    1.5771    0.0000 C   0  0  0  0  0  0  0  0  0  0  0  0
   -1.2163    3.0650    0.0000 O   0  0  0  0  0  0  0  0  0  0  0  0
   -2.2196    0.6684    0.0000 C   0  0  0  0  0  0  0  0  0  0  0  0
   -2.0294   -0.8195    0.0000 C   0  0  0  0  0  0  0  0  0  0  0  0
   -3.4131   -0.2402    0.0000 C   0  0  0  0  0  0  0  0  0  0  0  0
   -3.6033    1.2477    0.0000 C   0  0  0  0  0  0  0  0  0  0  0  0
   -4.9869    1.8269    0.0000 C   0  0  0  0  0  0  0  0  0  0  0  0
   -6.1804    0.9183    0.0000 C   0  0  0  0  0  0  0  0  0  0  0  0
   -5.9902   -0.5696    0.0000 C   0  0  0  0  0  0  0  0  0  0  0  0
   -7.1836   -1.4783    0.0000 O   0  0  0  0  0  0  0  0  0  0  0  0
   -4.6065   -1.1489    0.0000 C   0  0  0  0  0  0  0  0  0  0  0  0
   -1.8392   -2.3074    0.0000 C   0  0  0  0  0  0  0  0  0  0  0  0
   -0.4556   -2.8866    0.0000 C   0  0  0  0  0  0  0  0  0  0  0  0
    0.7379   -1.9780    0.0000 N   0  0  0  0  0  0  0  0  0  0  0  0
    2.1215   -2.5572    0.0000 C   0  0  0  0  0  0  0  0  0  0  0  0
    0.5477   -0.4901    0.0000 C   0  0  0  0  0  0  0  0  0  0  0  0
   -0.8360    0.0892    0.0000 C   0  0  0  0  0  0  0  0  0  0  0  0
    4.1281    2.2359    0.0000 C   0  0  0  0  0  0  0  0  0  0  0  0
    5.5117    1.6566    0.0000 C   0  0  0  0  0  0  0  0  0  0  0  0
  1  2  1  0
  2  3  1  0
  3  4  2  0
  4  5  1  0
  5  6  2  0
  6  7  1  0
  7  8  2  0
  8  9  1  0
  9 10  2  0
  9 11  1  0
 11 12  1  0
 12 13  1  6
 13 14  2  0
 14 15  1  0
 15 16  2  0
 16 17  1  0
 17 18  1  0
 17 19  2  0
 12 20  1  0
 20 21  1  0
 21 22  1  0
 22 23  1  0
 24 22  1  1
 24 25  1  0
  6 26  1  0
 26 27  2  0
 27  3  1  0
 24  8  1  0
 25 12  1  0
 19 13  1  0
M  END
>  <ChemBL_ID>  (990) 
CHEMBL143800

>  <Compound_Key>  (990) 
(-)-4

>  <Ki>  (990) 
81.3

>  <database>  (990) 
CHEMBL

>  <Assay_ChEMBL_ID>  (990) 
CHEMBL809526

>  <Document_ChEMBL_ID>  (990) 
CHEMBL1128667

$$$$

     RDKit          2D

 27 30  0  0  0  0  0  0  0  0999 V2000
    7.2757   -1.8984    0.0000 C   0  0  0  0  0  0  0  0  0  0  0  0
    7.0855   -0.4105    0.0000 O   0  0  0  0  0  0  0  0  0  0  0  0
    5.7019    0.1687    0.0000 C   0  0  0  0  0  0  0  0  0  0  0  0
    4.5084   -0.7399    0.0000 C   0  0  0  0  0  0  0  0  0  0  0  0
    3.1248   -0.1607    0.0000 C   0  0  0  0  0  0  0  0  0  0  0  0
    2.9346    1.3272    0.0000 C   0  0  0  0  0  0  0  0  0  0  0  0
    1.5510    1.9065    0.0000 C   0  0  0  0  0  0  0  0  0  0  0  0
    0.3575    0.9978    0.0000 C   0  0  0  0  0  0  0  0  0  0  0  0
   -1.0261    1.5771    0.0000 C   0  0  0  0  0  0  0  0  0  0  0  0
   -1.2163    3.0650    0.0000 O   0  0  0  0  0  0  0  0  0  0  0  0
   -2.2196    0.6684    0.0000 C   0  0  0  0  0  0  0  0  0  0  0  0
   -2.0294   -0.8195    0.0000 C   0  0  0  0  0  0  0  0  0  0  0  0
   -3.4131   -0.2402    0.0000 C   0  0  0  0  0  0  0  0  0  0  0  0
   -3.6033    1.2477    0.0000 C   0  0  0  0  0  0  0  0  0  0  0  0
   -4.9869    1.8269    0.0000 C   0  0  0  0  0  0  0  0  0  0  0  0
   -6.1804    0.9183    0.0000 C   0  0  0  0  0  0  0  0  0  0  0  0
   -5.9902   -0.5696    0.0000 C   0  0  0  0  0  0  0  0  0  0  0  0
   -7.1836   -1.4783    0.0000 O   0  0  0  0  0  0  0  0  0  0  0  0
   -4.6065   -1.1489    0.0000 C   0  0  0  0  0  0  0  0  0  0  0  0
   -1.8392   -2.3074    0.0000 C   0  0  0  0  0  0  0  0  0  0  0  0
   -0.4556   -2.8866    0.0000 C   0  0  0  0  0  0  0  0  0  0  0  0
    0.7379   -1.9780    0.0000 N   0  0  0  0  0  0  0  0  0  0  0  0
    2.1215   -2.5572    0.0000 C   0  0  0  0  0  0  0  0  0  0  0  0
    0.5477   -0.4901    0.0000 C   0  0  0  0  0  0  0  0  0  0  0  0
   -0.8360    0.0892    0.0000 C   0  0  0  0  0  0  0  0  0  0  0  0
    4.1281    2.2359    0.0000 C   0  0  0  0  0  0  0  0  0  0  0  0
    5.5117    1.6566    0.0000 C   0  0  0  0  0  0  0  0  0  0  0  0
  1  2  1  0
  2  3  1  0
  3  4  2  0
  4  5  1  0
  5  6  2  0
  6  7  1  0
  7  8  2  0
  8  9  1  0
  9 10  2  0
  9 11  1  0
 11 12  1  0
 12 13  1  0
 13 14  2  0
 14 15  1  0
 15 16  2  0
 16 17  1  0
 17 18  1  0
 17 19  2  0
 12 20  1  0
 20 21  1  0
 21 22  1  0
 22 23  1  0
 22 24  1  0
 24 25  1  0
  6 26  1  0
 26 27  2  0
 27  3  1  0
 24  8  1  0
 25 12  1  0
 19 13  1  0
M  END
>  <ChemBL_ID>  (991) 
CHEMBL143800

>  <Compound_Key>  (991) 
4

>  <Ki>  (991) 
35.0

>  <database>  (991) 
CHEMBL

>  <Assay_ChEMBL_ID>  (991) 
CHEMBL809526

>  <Document_ChEMBL_ID>  (991) 
CHEMBL1128667

$$$$

     RDKit          2D

 26 29  0  0  0  0  0  0  0  0999 V2000
    2.2834   -2.7333    0.0000 C   0  0  0  0  0  0  0  0  0  0  0  0
    0.9265   -2.0938    0.0000 N   0  0  0  0  0  0  0  0  0  0  0  0
   -0.3058   -2.9490    0.0000 C   0  0  0  0  0  0  0  0  0  0  0  0
   -1.6626   -2.3095    0.0000 C   0  0  0  0  0  0  0  0  0  0  0  0
   -1.7871   -0.8147    0.0000 C   0  0  0  0  0  0  0  0  0  0  0  0
   -3.1440   -0.1752    0.0000 C   0  0  0  0  0  0  0  0  0  0  0  0
   -3.2685    1.3197    0.0000 C   0  0  0  0  0  0  0  0  0  0  0  0
   -4.6254    1.9592    0.0000 C   0  0  0  0  0  0  0  0  0  0  0  0
   -5.8577    1.1039    0.0000 C   0  0  0  0  0  0  0  0  0  0  0  0
   -5.7331   -0.3909    0.0000 C   0  0  0  0  0  0  0  0  0  0  0  0
   -6.9654   -1.2462    0.0000 O   0  0  0  0  0  0  0  0  0  0  0  0
   -4.3763   -1.0304    0.0000 C   0  0  0  0  0  0  0  0  0  0  0  0
   -1.9117    0.6801    0.0000 C   0  0  0  0  0  0  0  0  0  0  0  0
   -0.6794    1.5354    0.0000 C   0  0  0  0  0  0  0  0  0  0  0  0
   -0.8040    3.0302    0.0000 O   0  0  0  0  0  0  0  0  0  0  0  0
    0.6774    0.8959    0.0000 C   0  0  0  0  0  0  0  0  0  0  0  0
    1.9097    1.7512    0.0000 C   0  0  0  0  0  0  0  0  0  0  0  0
    3.2665    1.1116    0.0000 C   0  0  0  0  0  0  0  0  0  0  0  0
    3.3911   -0.3832    0.0000 C   0  0  0  0  0  0  0  0  0  0  0  0
    4.7479   -1.0227    0.0000 C   0  0  0  0  0  0  0  0  0  0  0  0
    5.9802   -0.1674    0.0000 C   0  0  0  0  0  0  0  0  0  0  0  0
    7.3370   -0.8070    0.0000 Cl  0  0  0  0  0  0  0  0  0  0  0  0
    5.8556    1.3274    0.0000 C   0  0  0  0  0  0  0  0  0  0  0  0
    4.4988    1.9669    0.0000 C   0  0  0  0  0  0  0  0  0  0  0  0
    0.8020   -0.5989    0.0000 C   0  0  0  0  0  0  0  0  0  0  0  0
   -0.5549    0.0406    0.0000 C   0  0  0  0  0  0  0  0  0  0  0  0
  1  2  1  0
  2  3  1  0
  3  4  1  0
  4  5  1  0
  5  6  1  1
  6  7  2  0
  7  8  1  0
  8  9  2  0
  9 10  1  0
 10 11  1  0
 10 12  2  0
  5 13  1  0
 13 14  1  0
 14 15  2  0
 14 16  1  0
 16 17  2  0
 17 18  1  0
 18 19  2  0
 19 20  1  0
 20 21  2  0
 21 22  1  0
 21 23  1  0
 23 24  2  0
 16 25  1  0
 25 26  1  0
 25  2  1  6
 26  5  1  0
 12  6  1  0
 24 18  1  0
M  END
>  <ChemBL_ID>  (992) 
CHEMBL141381

>  <Compound_Key>  (992) 
(+)-5

>  <Ki>  (992) 
6.4

>  <database>  (992) 
SRSLDB

>  <Assay_ChEMBL_ID>  (992) 
CHEMBL809526

>  <Document_ChEMBL_ID>  (992) 
CHEMBL1128667

$$$$

     RDKit          2D

 26 29  0  0  0  0  0  0  0  0999 V2000
    2.2834   -2.7333    0.0000 C   0  0  0  0  0  0  0  0  0  0  0  0
    0.9265   -2.0938    0.0000 N   0  0  0  0  0  0  0  0  0  0  0  0
   -0.3058   -2.9490    0.0000 C   0  0  0  0  0  0  0  0  0  0  0  0
   -1.6626   -2.3095    0.0000 C   0  0  0  0  0  0  0  0  0  0  0  0
   -1.7871   -0.8147    0.0000 C   0  0  0  0  0  0  0  0  0  0  0  0
   -3.1440   -0.1752    0.0000 C   0  0  0  0  0  0  0  0  0  0  0  0
   -3.2685    1.3197    0.0000 C   0  0  0  0  0  0  0  0  0  0  0  0
   -4.6254    1.9592    0.0000 C   0  0  0  0  0  0  0  0  0  0  0  0
   -5.8577    1.1039    0.0000 C   0  0  0  0  0  0  0  0  0  0  0  0
   -5.7331   -0.3909    0.0000 C   0  0  0  0  0  0  0  0  0  0  0  0
   -6.9654   -1.2462    0.0000 O   0  0  0  0  0  0  0  0  0  0  0  0
   -4.3763   -1.0304    0.0000 C   0  0  0  0  0  0  0  0  0  0  0  0
   -1.9117    0.6801    0.0000 C   0  0  0  0  0  0  0  0  0  0  0  0
   -0.6794    1.5354    0.0000 C   0  0  0  0  0  0  0  0  0  0  0  0
   -0.8040    3.0302    0.0000 O   0  0  0  0  0  0  0  0  0  0  0  0
    0.6774    0.8959    0.0000 C   0  0  0  0  0  0  0  0  0  0  0  0
    1.9097    1.7512    0.0000 C   0  0  0  0  0  0  0  0  0  0  0  0
    3.2665    1.1116    0.0000 C   0  0  0  0  0  0  0  0  0  0  0  0
    3.3911   -0.3832    0.0000 C   0  0  0  0  0  0  0  0  0  0  0  0
    4.7479   -1.0227    0.0000 C   0  0  0  0  0  0  0  0  0  0  0  0
    5.9802   -0.1674    0.0000 C   0  0  0  0  0  0  0  0  0  0  0  0
    7.3370   -0.8070    0.0000 Cl  0  0  0  0  0  0  0  0  0  0  0  0
    5.8556    1.3274    0.0000 C   0  0  0  0  0  0  0  0  0  0  0  0
    4.4988    1.9669    0.0000 C   0  0  0  0  0  0  0  0  0  0  0  0
    0.8020   -0.5989    0.0000 C   0  0  0  0  0  0  0  0  0  0  0  0
   -0.5549    0.0406    0.0000 C   0  0  0  0  0  0  0  0  0  0  0  0
  1  2  1  0
  2  3  1  0
  3  4  1  0
  4  5  1  0
  5  6  1  6
  6  7  2  0
  7  8  1  0
  8  9  2  0
  9 10  1  0
 10 11  1  0
 10 12  2  0
  5 13  1  0
 13 14  1  0
 14 15  2  0
 14 16  1  0
 16 17  2  0
 17 18  1  0
 18 19  2  0
 19 20  1  0
 20 21  2  0
 21 22  1  0
 21 23  1  0
 23 24  2  0
 16 25  1  0
 25 26  1  0
 25  2  1  1
 26  5  1  0
 12  6  1  0
 24 18  1  0
M  END
>  <ChemBL_ID>  (993) 
CHEMBL141381

>  <Compound_Key>  (993) 
(-)-5

>  <Ki>  (993) 
26.5

>  <database>  (993) 
CHEMBL

>  <Assay_ChEMBL_ID>  (993) 
CHEMBL809526

>  <Document_ChEMBL_ID>  (993) 
CHEMBL1128667

$$$$

     RDKit          2D

 26 29  0  0  0  0  0  0  0  0999 V2000
    2.2834   -2.7333    0.0000 C   0  0  0  0  0  0  0  0  0  0  0  0
    0.9265   -2.0938    0.0000 N   0  0  0  0  0  0  0  0  0  0  0  0
   -0.3058   -2.9490    0.0000 C   0  0  0  0  0  0  0  0  0  0  0  0
   -1.6626   -2.3095    0.0000 C   0  0  0  0  0  0  0  0  0  0  0  0
   -1.7871   -0.8147    0.0000 C   0  0  0  0  0  0  0  0  0  0  0  0
   -3.1440   -0.1752    0.0000 C   0  0  0  0  0  0  0  0  0  0  0  0
   -3.2685    1.3197    0.0000 C   0  0  0  0  0  0  0  0  0  0  0  0
   -4.6254    1.9592    0.0000 C   0  0  0  0  0  0  0  0  0  0  0  0
   -5.8577    1.1039    0.0000 C   0  0  0  0  0  0  0  0  0  0  0  0
   -5.7331   -0.3909    0.0000 C   0  0  0  0  0  0  0  0  0  0  0  0
   -6.9654   -1.2462    0.0000 O   0  0  0  0  0  0  0  0  0  0  0  0
   -4.3763   -1.0304    0.0000 C   0  0  0  0  0  0  0  0  0  0  0  0
   -1.9117    0.6801    0.0000 C   0  0  0  0  0  0  0  0  0  0  0  0
   -0.6794    1.5354    0.0000 C   0  0  0  0  0  0  0  0  0  0  0  0
   -0.8040    3.0302    0.0000 O   0  0  0  0  0  0  0  0  0  0  0  0
    0.6774    0.8959    0.0000 C   0  0  0  0  0  0  0  0  0  0  0  0
    1.9097    1.7512    0.0000 C   0  0  0  0  0  0  0  0  0  0  0  0
    3.2665    1.1116    0.0000 C   0  0  0  0  0  0  0  0  0  0  0  0
    3.3911   -0.3832    0.0000 C   0  0  0  0  0  0  0  0  0  0  0  0
    4.7479   -1.0227    0.0000 C   0  0  0  0  0  0  0  0  0  0  0  0
    5.9802   -0.1674    0.0000 C   0  0  0  0  0  0  0  0  0  0  0  0
    7.3370   -0.8070    0.0000 Cl  0  0  0  0  0  0  0  0  0  0  0  0
    5.8556    1.3274    0.0000 C   0  0  0  0  0  0  0  0  0  0  0  0
    4.4988    1.9669    0.0000 C   0  0  0  0  0  0  0  0  0  0  0  0
    0.8020   -0.5989    0.0000 C   0  0  0  0  0  0  0  0  0  0  0  0
   -0.5549    0.0406    0.0000 C   0  0  0  0  0  0  0  0  0  0  0  0
  1  2  1  0
  2  3  1  0
  3  4  1  0
  4  5  1  0
  5  6  1  0
  6  7  2  0
  7  8  1  0
  8  9  2  0
  9 10  1  0
 10 11  1  0
 10 12  2  0
  5 13  1  0
 13 14  1  0
 14 15  2  0
 14 16  1  0
 16 17  2  0
 17 18  1  0
 18 19  2  0
 19 20  1  0
 20 21  2  0
 21 22  1  0
 21 23  1  0
 23 24  2  0
 16 25  1  0
 25 26  1  0
 25  2  1  0
 26  5  1  0
 12  6  1  0
 24 18  1  0
M  END
>  <ChemBL_ID>  (994) 
CHEMBL141381

>  <Compound_Key>  (994) 
5

>  <Ki>  (994) 
9.5

>  <database>  (994) 
CHEMBL

>  <Assay_ChEMBL_ID>  (994) 
CHEMBL809526

>  <Document_ChEMBL_ID>  (994) 
CHEMBL1128667

$$$$

     RDKit          2D

 25 28  0  0  0  0  0  0  0  0999 V2000
    2.5134   -2.8233    0.0000 C   0  0  0  0  0  0  0  0  0  0  0  0
    1.1714   -2.1532    0.0000 N   0  0  0  0  0  0  0  0  0  0  0  0
   -0.0799   -2.9803    0.0000 C   0  0  0  0  0  0  0  0  0  0  0  0
   -1.4219   -2.3101    0.0000 C   0  0  0  0  0  0  0  0  0  0  0  0
   -1.5125   -0.8129    0.0000 C   0  0  0  0  0  0  0  0  0  0  0  0
   -2.8545   -0.1427    0.0000 C   0  0  0  0  0  0  0  0  0  0  0  0
   -2.9451    1.3546    0.0000 C   0  0  0  0  0  0  0  0  0  0  0  0
   -4.2871    2.0247    0.0000 C   0  0  0  0  0  0  0  0  0  0  0  0
   -5.5384    1.1976    0.0000 C   0  0  0  0  0  0  0  0  0  0  0  0
   -5.4478   -0.2997    0.0000 C   0  0  0  0  0  0  0  0  0  0  0  0
   -6.6992   -1.1268    0.0000 O   0  0  0  0  0  0  0  0  0  0  0  0
   -4.1058   -0.9698    0.0000 C   0  0  0  0  0  0  0  0  0  0  0  0
   -1.6031    0.6844    0.0000 C   0  0  0  0  0  0  0  0  0  0  0  0
   -0.3518    1.5115    0.0000 C   0  0  0  0  0  0  0  0  0  0  0  0
   -0.4424    3.0088    0.0000 O   0  0  0  0  0  0  0  0  0  0  0  0
    0.9902    0.8414    0.0000 C   0  0  0  0  0  0  0  0  0  0  0  0
    2.2416    1.6685    0.0000 C   0  0  0  0  0  0  0  0  0  0  0  0
    3.5835    0.9983    0.0000 C   0  0  0  0  0  0  0  0  0  0  0  0
    3.6742   -0.4990    0.0000 C   0  0  0  0  0  0  0  0  0  0  0  0
    5.0161   -1.1691    0.0000 C   0  0  0  0  0  0  0  0  0  0  0  0
    6.2675   -0.3420    0.0000 C   0  0  0  0  0  0  0  0  0  0  0  0
    6.1769    1.1553    0.0000 C   0  0  0  0  0  0  0  0  0  0  0  0
    4.8349    1.8254    0.0000 C   0  0  0  0  0  0  0  0  0  0  0  0
    1.0808   -0.6559    0.0000 C   0  0  0  0  0  0  0  0  0  0  0  0
   -0.2611    0.0143    0.0000 C   0  0  0  0  0  0  0  0  0  0  0  0
  1  2  1  0
  2  3  1  0
  3  4  1  0
  4  5  1  0
  5  6  1  1
  6  7  2  0
  7  8  1  0
  8  9  2  0
  9 10  1  0
 10 11  1  0
 10 12  2  0
  5 13  1  0
 13 14  1  0
 14 15  2  0
 14 16  1  0
 16 17  2  0
 17 18  1  0
 18 19  2  0
 19 20  1  0
 20 21  2  0
 21 22  1  0
 22 23  2  0
 16 24  1  0
 24 25  1  0
 24  2  1  6
 25  5  1  0
 12  6  1  0
 23 18  1  0
M  END
>  <ChemBL_ID>  (995) 
CHEMBL110319

>  <Compound_Key>  (995) 
(+)-2

>  <Ki>  (995) 
16.5

>  <database>  (995) 
SRSLDB

>  <Assay_ChEMBL_ID>  (995) 
CHEMBL809526

>  <Document_ChEMBL_ID>  (995) 
CHEMBL1128667

$$$$

     RDKit          2D

 25 28  0  0  0  0  0  0  0  0999 V2000
    2.5134   -2.8233    0.0000 C   0  0  0  0  0  0  0  0  0  0  0  0
    1.1714   -2.1532    0.0000 N   0  0  0  0  0  0  0  0  0  0  0  0
   -0.0799   -2.9803    0.0000 C   0  0  0  0  0  0  0  0  0  0  0  0
   -1.4219   -2.3101    0.0000 C   0  0  0  0  0  0  0  0  0  0  0  0
   -1.5125   -0.8129    0.0000 C   0  0  0  0  0  0  0  0  0  0  0  0
   -2.8545   -0.1427    0.0000 C   0  0  0  0  0  0  0  0  0  0  0  0
   -2.9451    1.3546    0.0000 C   0  0  0  0  0  0  0  0  0  0  0  0
   -4.2871    2.0247    0.0000 C   0  0  0  0  0  0  0  0  0  0  0  0
   -5.5384    1.1976    0.0000 C   0  0  0  0  0  0  0  0  0  0  0  0
   -5.4478   -0.2997    0.0000 C   0  0  0  0  0  0  0  0  0  0  0  0
   -6.6992   -1.1268    0.0000 O   0  0  0  0  0  0  0  0  0  0  0  0
   -4.1058   -0.9698    0.0000 C   0  0  0  0  0  0  0  0  0  0  0  0
   -1.6031    0.6844    0.0000 C   0  0  0  0  0  0  0  0  0  0  0  0
   -0.3518    1.5115    0.0000 C   0  0  0  0  0  0  0  0  0  0  0  0
   -0.4424    3.0088    0.0000 O   0  0  0  0  0  0  0  0  0  0  0  0
    0.9902    0.8414    0.0000 C   0  0  0  0  0  0  0  0  0  0  0  0
    2.2416    1.6685    0.0000 C   0  0  0  0  0  0  0  0  0  0  0  0
    3.5835    0.9983    0.0000 C   0  0  0  0  0  0  0  0  0  0  0  0
    3.6742   -0.4990    0.0000 C   0  0  0  0  0  0  0  0  0  0  0  0
    5.0161   -1.1691    0.0000 C   0  0  0  0  0  0  0  0  0  0  0  0
    6.2675   -0.3420    0.0000 C   0  0  0  0  0  0  0  0  0  0  0  0
    6.1769    1.1553    0.0000 C   0  0  0  0  0  0  0  0  0  0  0  0
    4.8349    1.8254    0.0000 C   0  0  0  0  0  0  0  0  0  0  0  0
    1.0808   -0.6559    0.0000 C   0  0  0  0  0  0  0  0  0  0  0  0
   -0.2611    0.0143    0.0000 C   0  0  0  0  0  0  0  0  0  0  0  0
  1  2  1  0
  2  3  1  0
  3  4  1  0
  4  5  1  0
  5  6  1  6
  6  7  2  0
  7  8  1  0
  8  9  2  0
  9 10  1  0
 10 11  1  0
 10 12  2  0
  5 13  1  0
 13 14  1  0
 14 15  2  0
 14 16  1  0
 16 17  2  0
 17 18  1  0
 18 19  2  0
 19 20  1  0
 20 21  2  0
 21 22  1  0
 22 23  2  0
 16 24  1  0
 24 25  1  0
 24  2  1  1
 25  5  1  0
 12  6  1  0
 23 18  1  0
M  END
>  <ChemBL_ID>  (996) 
CHEMBL110319

>  <Compound_Key>  (996) 
(-)-2

>  <Ki>  (996) 
154.0

>  <database>  (996) 
CHEMBL

>  <Assay_ChEMBL_ID>  (996) 
CHEMBL809526

>  <Document_ChEMBL_ID>  (996) 
CHEMBL1128667

$$$$

     RDKit          2D

 25 28  0  0  0  0  0  0  0  0999 V2000
    2.5134   -2.8233    0.0000 C   0  0  0  0  0  0  0  0  0  0  0  0
    1.1714   -2.1532    0.0000 N   0  0  0  0  0  0  0  0  0  0  0  0
   -0.0799   -2.9803    0.0000 C   0  0  0  0  0  0  0  0  0  0  0  0
   -1.4219   -2.3101    0.0000 C   0  0  0  0  0  0  0  0  0  0  0  0
   -1.5125   -0.8129    0.0000 C   0  0  0  0  0  0  0  0  0  0  0  0
   -2.8545   -0.1427    0.0000 C   0  0  0  0  0  0  0  0  0  0  0  0
   -2.9451    1.3546    0.0000 C   0  0  0  0  0  0  0  0  0  0  0  0
   -4.2871    2.0247    0.0000 C   0  0  0  0  0  0  0  0  0  0  0  0
   -5.5384    1.1976    0.0000 C   0  0  0  0  0  0  0  0  0  0  0  0
   -5.4478   -0.2997    0.0000 C   0  0  0  0  0  0  0  0  0  0  0  0
   -6.6992   -1.1268    0.0000 O   0  0  0  0  0  0  0  0  0  0  0  0
   -4.1058   -0.9698    0.0000 C   0  0  0  0  0  0  0  0  0  0  0  0
   -1.6031    0.6844    0.0000 C   0  0  0  0  0  0  0  0  0  0  0  0
   -0.3518    1.5115    0.0000 C   0  0  0  0  0  0  0  0  0  0  0  0
   -0.4424    3.0088    0.0000 O   0  0  0  0  0  0  0  0  0  0  0  0
    0.9902    0.8414    0.0000 C   0  0  0  0  0  0  0  0  0  0  0  0
    2.2416    1.6685    0.0000 C   0  0  0  0  0  0  0  0  0  0  0  0
    3.5835    0.9983    0.0000 C   0  0  0  0  0  0  0  0  0  0  0  0
    3.6742   -0.4990    0.0000 C   0  0  0  0  0  0  0  0  0  0  0  0
    5.0161   -1.1691    0.0000 C   0  0  0  0  0  0  0  0  0  0  0  0
    6.2675   -0.3420    0.0000 C   0  0  0  0  0  0  0  0  0  0  0  0
    6.1769    1.1553    0.0000 C   0  0  0  0  0  0  0  0  0  0  0  0
    4.8349    1.8254    0.0000 C   0  0  0  0  0  0  0  0  0  0  0  0
    1.0808   -0.6559    0.0000 C   0  0  0  0  0  0  0  0  0  0  0  0
   -0.2611    0.0143    0.0000 C   0  0  0  0  0  0  0  0  0  0  0  0
  1  2  1  0
  2  3  1  0
  3  4  1  0
  4  5  1  0
  5  6  1  0
  6  7  2  0
  7  8  1  0
  8  9  2  0
  9 10  1  0
 10 11  1  0
 10 12  2  0
  5 13  1  0
 13 14  1  0
 14 15  2  0
 14 16  1  0
 16 17  2  0
 17 18  1  0
 18 19  2  0
 19 20  1  0
 20 21  2  0
 21 22  1  0
 22 23  2  0
 16 24  1  0
 24 25  1  0
 24  2  1  0
 25  5  1  0
 12  6  1  0
 23 18  1  0
M  END
>  <ChemBL_ID>  (997) 
CHEMBL110319

>  <Compound_Key>  (997) 
2

>  <Ki>  (997) 
37.0

>  <database>  (997) 
CHEMBL

>  <Assay_ChEMBL_ID>  (997) 
CHEMBL809526

>  <Document_ChEMBL_ID>  (997) 
CHEMBL1128667

$$$$

     RDKit          2D

 26 29  0  0  0  0  0  0  0  0999 V2000
   -7.7361   -0.3572    0.0000 C   0  0  0  0  0  0  0  0  0  0  0  0
   -6.4013   -1.0415    0.0000 O   0  0  0  0  0  0  0  0  0  0  0  0
   -5.1412   -0.2277    0.0000 C   0  0  0  0  0  0  0  0  0  0  0  0
   -5.2160    1.2705    0.0000 C   0  0  0  0  0  0  0  0  0  0  0  0
   -3.9559    2.0843    0.0000 C   0  0  0  0  0  0  0  0  0  0  0  0
   -2.6211    1.3999    0.0000 C   0  0  0  0  0  0  0  0  0  0  0  0
   -2.5464   -0.0982    0.0000 C   0  0  0  0  0  0  0  0  0  0  0  0
   -1.2116   -0.7825    0.0000 C   0  0  0  0  0  0  0  0  0  0  0  0
   -1.1368   -2.2806    0.0000 C   0  0  0  0  0  0  0  0  0  0  0  0
    0.1980   -2.9650    0.0000 C   0  0  0  0  0  0  0  0  0  0  0  0
    1.4580   -2.1512    0.0000 N   0  0  0  0  0  0  0  0  0  0  0  0
    2.7928   -2.8355    0.0000 C   0  0  0  0  0  0  0  0  0  0  0  0
    1.3833   -0.6530    0.0000 C   0  0  0  0  0  0  0  0  0  0  0  0
    0.0485    0.0313    0.0000 C   0  0  0  0  0  0  0  0  0  0  0  0
    1.3085    0.8451    0.0000 C   0  0  0  0  0  0  0  0  0  0  0  0
    2.5686    1.6589    0.0000 C   0  0  0  0  0  0  0  0  0  0  0  0
    3.9034    0.9746    0.0000 C   0  0  0  0  0  0  0  0  0  0  0  0
    3.9781   -0.5235    0.0000 C   0  0  0  0  0  0  0  0  0  0  0  0
    5.3129   -1.2079    0.0000 C   0  0  0  0  0  0  0  0  0  0  0  0
    6.5730   -0.3941    0.0000 C   0  0  0  0  0  0  0  0  0  0  0  0
    6.4982    1.1041    0.0000 C   0  0  0  0  0  0  0  0  0  0  0  0
    5.1634    1.7884    0.0000 C   0  0  0  0  0  0  0  0  0  0  0  0
   -0.0263    1.5294    0.0000 C   0  0  0  0  0  0  0  0  0  0  0  0
   -0.1011    3.0276    0.0000 O   0  0  0  0  0  0  0  0  0  0  0  0
   -1.2863    0.7156    0.0000 C   0  0  0  0  0  0  0  0  0  0  0  0
   -3.8064   -0.9120    0.0000 C   0  0  0  0  0  0  0  0  0  0  0  0
  1  2  1  0
  2  3  1  0
  3  4  2  0
  4  5  1  0
  5  6  2  0
  6  7  1  0
  8  7  1  1
  8  9  1  0
  9 10  1  0
 10 11  1  0
 11 12  1  0
 13 11  1  6
 13 14  1  0
 13 15  1  0
 15 16  2  0
 16 17  1  0
 17 18  2  0
 18 19  1  0
 19 20  2  0
 20 21  1  0
 21 22  2  0
 15 23  1  0
 23 24  2  0
 23 25  1  0
  7 26  2  0
 26  3  1  0
 14  8  1  0
 22 17  1  0
 25  8  1  0
M  END
>  <ChemBL_ID>  (998) 
CHEMBL109124

>  <Compound_Key>  (998) 
(+)-10

>  <Ki>  (998) 
52.0

>  <database>  (998) 
SRSLDB

>  <Assay_ChEMBL_ID>  (998) 
CHEMBL809526

>  <Document_ChEMBL_ID>  (998) 
CHEMBL1128667

$$$$

     RDKit          2D

 26 29  0  0  0  0  0  0  0  0999 V2000
   -7.7361   -0.3572    0.0000 C   0  0  0  0  0  0  0  0  0  0  0  0
   -6.4013   -1.0415    0.0000 O   0  0  0  0  0  0  0  0  0  0  0  0
   -5.1412   -0.2277    0.0000 C   0  0  0  0  0  0  0  0  0  0  0  0
   -5.2160    1.2705    0.0000 C   0  0  0  0  0  0  0  0  0  0  0  0
   -3.9559    2.0843    0.0000 C   0  0  0  0  0  0  0  0  0  0  0  0
   -2.6211    1.3999    0.0000 C   0  0  0  0  0  0  0  0  0  0  0  0
   -2.5464   -0.0982    0.0000 C   0  0  0  0  0  0  0  0  0  0  0  0
   -1.2116   -0.7825    0.0000 C   0  0  0  0  0  0  0  0  0  0  0  0
   -1.1368   -2.2806    0.0000 C   0  0  0  0  0  0  0  0  0  0  0  0
    0.1980   -2.9650    0.0000 C   0  0  0  0  0  0  0  0  0  0  0  0
    1.4580   -2.1512    0.0000 N   0  0  0  0  0  0  0  0  0  0  0  0
    2.7928   -2.8355    0.0000 C   0  0  0  0  0  0  0  0  0  0  0  0
    1.3833   -0.6530    0.0000 C   0  0  0  0  0  0  0  0  0  0  0  0
    0.0485    0.0313    0.0000 C   0  0  0  0  0  0  0  0  0  0  0  0
    1.3085    0.8451    0.0000 C   0  0  0  0  0  0  0  0  0  0  0  0
    2.5686    1.6589    0.0000 C   0  0  0  0  0  0  0  0  0  0  0  0
    3.9034    0.9746    0.0000 C   0  0  0  0  0  0  0  0  0  0  0  0
    3.9781   -0.5235    0.0000 C   0  0  0  0  0  0  0  0  0  0  0  0
    5.3129   -1.2079    0.0000 C   0  0  0  0  0  0  0  0  0  0  0  0
    6.5730   -0.3941    0.0000 C   0  0  0  0  0  0  0  0  0  0  0  0
    6.4982    1.1041    0.0000 C   0  0  0  0  0  0  0  0  0  0  0  0
    5.1634    1.7884    0.0000 C   0  0  0  0  0  0  0  0  0  0  0  0
   -0.0263    1.5294    0.0000 C   0  0  0  0  0  0  0  0  0  0  0  0
   -0.1011    3.0276    0.0000 O   0  0  0  0  0  0  0  0  0  0  0  0
   -1.2863    0.7156    0.0000 C   0  0  0  0  0  0  0  0  0  0  0  0
   -3.8064   -0.9120    0.0000 C   0  0  0  0  0  0  0  0  0  0  0  0
  1  2  1  0
  2  3  1  0
  3  4  2  0
  4  5  1  0
  5  6  2  0
  6  7  1  0
  7  8  1  0
  8  9  1  0
  9 10  1  0
 10 11  1  0
 11 12  1  0
 11 13  1  0
 13 14  1  0
 13 15  1  0
 15 16  2  0
 16 17  1  0
 17 18  2  0
 18 19  1  0
 19 20  2  0
 20 21  1  0
 21 22  2  0
 15 23  1  0
 23 24  2  0
 23 25  1  0
  7 26  2  0
 26  3  1  0
 14  8  1  0
 22 17  1  0
 25  8  1  0
M  END
>  <ChemBL_ID>  (999) 
CHEMBL109124

>  <Compound_Key>  (999) 
10

>  <Ki>  (999) 
81.7

>  <database>  (999) 
CHEMBL

>  <Assay_ChEMBL_ID>  (999) 
CHEMBL809526

>  <Document_ChEMBL_ID>  (999) 
CHEMBL1128667

$$$$

     RDKit          2D

 19 20  0  0  0  0  0  0  0  0999 V2000
   -8.3075   -0.6112    0.0000 N   0  0  0  0  0  0  0  0  0  0  0  0
   -6.8297   -0.3544    0.0000 C   0  0  0  0  0  0  0  0  0  0  0  0
   -5.3518   -0.0975    0.0000 C   0  0  0  0  0  0  0  0  0  0  0  0
   -4.8354    1.3108    0.0000 C   0  0  0  0  0  0  0  0  0  0  0  0
   -3.3575    1.5677    0.0000 C   0  0  0  0  0  0  0  0  0  0  0  0
   -2.3962    0.4163    0.0000 C   0  0  0  0  0  0  0  0  0  0  0  0
   -0.9183    0.6731    0.0000 O   0  0  0  0  0  0  0  0  0  0  0  0
    0.0431   -0.4783    0.0000 C   0  0  0  0  0  0  0  0  0  0  0  0
    1.5209   -0.2214    0.0000 C   0  0  0  0  0  0  0  0  0  0  0  0
    2.4823   -1.3728    0.0000 C   0  0  0  0  0  0  0  0  0  0  0  0
    3.9601   -1.1159    0.0000 C   0  0  0  0  0  0  0  0  0  0  0  0
    4.4766    0.2923    0.0000 N   0  0  0  0  0  0  0  0  0  0  0  0
    5.9544    0.5492    0.0000 C   0  0  0  0  0  0  0  0  0  0  0  0
    6.9158   -0.6022    0.0000 C   0  0  0  0  0  0  0  0  0  0  0  0
    8.3937   -0.3453    0.0000 I   0  0  0  0  0  0  0  0  0  0  0  0
    3.5152    1.4438    0.0000 C   0  0  0  0  0  0  0  0  0  0  0  0
    2.0374    1.1869    0.0000 C   0  0  0  0  0  0  0  0  0  0  0  0
   -2.9126   -0.9920    0.0000 C   0  0  0  0  0  0  0  0  0  0  0  0
   -4.3905   -1.2489    0.0000 C   0  0  0  0  0  0  0  0  0  0  0  0
  1  2  3  0
  2  3  1  0
  3  4  2  0
  4  5  1  0
  5  6  2  0
  6  7  1  0
  7  8  1  0
  8  9  1  0
  9 10  1  0
 10 11  1  0
 11 12  1  0
 12 13  1  0
 13 14  1  0
 14 15  1  0
 12 16  1  0
 16 17  1  0
  6 18  1  0
 18 19  2  0
 19  3  1  0
 17  9  1  0
M  END
>  <Compound_Key>  (1000) 
4

>  <Ki>  (1000) 
38.8

>  <database>  (1000) 
Literature

>  <Assay_ChEMBL_ID>  (1000) 
CHEMBL811511

>  <Document_ChEMBL_ID>  (1000) 
CHEMBL1130041

$$$$

     RDKit          2D

 24 26  0  0  0  0  0  0  0  0999 V2000
    1.0830   -1.2543    0.0000 O   0  0  0  0  0  0  0  0  0  0  0  0
    1.5296    0.1777    0.0000 C   0  0  0  0  0  0  0  0  0  0  0  0
    2.9930    0.5069    0.0000 C   0  0  0  0  0  0  0  0  0  0  0  0
    4.0098   -0.5959    0.0000 C   0  0  0  0  0  0  0  0  0  0  0  0
    3.5632   -2.0278    0.0000 O   0  0  0  0  0  0  0  0  0  0  0  0
    5.4732   -0.2666    0.0000 C   0  0  0  0  0  0  0  0  0  0  0  0
    6.4901   -1.3694    0.0000 C   0  0  0  0  0  0  0  0  0  0  0  0
    7.9535   -1.0401    0.0000 C   0  0  0  0  0  0  0  0  0  0  0  0
    8.4001    0.3918    0.0000 C   0  0  0  0  0  0  0  0  0  0  0  0
    7.3832    1.4946    0.0000 C   0  0  0  0  0  0  0  0  0  0  0  0
    5.9198    1.1654    0.0000 C   0  0  0  0  0  0  0  0  0  0  0  0
    0.5127    1.2804    0.0000 N   0  0  0  0  0  0  0  0  0  0  0  0
   -0.9507    0.9512    0.0000 C   0  0  0  0  0  0  0  0  0  0  0  0
   -1.9675    2.0539    0.0000 C   0  0  0  0  0  0  0  0  0  0  0  0
   -3.4310    1.7247    0.0000 C   0  0  0  0  0  0  0  0  0  0  0  0
   -3.8776    0.2927    0.0000 N   0  0  0  0  0  0  0  0  0  0  0  0
   -5.3410   -0.0365    0.0000 C   0  0  0  0  0  0  0  0  0  0  0  0
   -6.3578    1.0663    0.0000 C   0  0  0  0  0  0  0  0  0  0  0  0
   -7.8212    0.7370    0.0000 C   0  0  0  0  0  0  0  0  0  0  0  0
   -8.2678   -0.6950    0.0000 C   0  0  0  0  0  0  0  0  0  0  0  0
   -7.2510   -1.7977    0.0000 C   0  0  0  0  0  0  0  0  0  0  0  0
   -5.7876   -1.4685    0.0000 C   0  0  0  0  0  0  0  0  0  0  0  0
   -2.8607   -0.8100    0.0000 C   0  0  0  0  0  0  0  0  0  0  0  0
   -1.3973   -0.4808    0.0000 C   0  0  0  0  0  0  0  0  0  0  0  0
  1  2  2  0
  2  3  1  0
  3  4  1  0
  4  5  2  0
  4  6  1  0
  6  7  2  0
  7  8  1  0
  8  9  2  0
  9 10  1  0
 10 11  2  0
  2 12  1  0
 12 13  1  0
 13 14  1  0
 14 15  1  0
 15 16  1  0
 16 17  1  0
 17 18  2  0
 18 19  1  0
 19 20  2  0
 20 21  1  0
 21 22  2  0
 16 23  1  0
 23 24  1  0
 11  6  1  0
 24 13  1  0
 22 17  1  0
M  END
>  <Compound_Key>  (1001) 
BBP

>  <Ki>  (1001) 
240.0

>  <database>  (1001) 
Literature

>  <Assay_ChEMBL_ID>  (1001) 
CHEMBL846104

>  <Document_ChEMBL_ID>  (1001) 
CHEMBL1134305

$$$$

     RDKit          2D

 27 30  0  0  0  0  0  0  0  0999 V2000
   -9.4439   -0.8282    0.0000 C   0  0  0  0  0  0  0  0  0  0  0  0
   -8.0074   -1.2600    0.0000 O   0  0  0  0  0  0  0  0  0  0  0  0
   -6.9152   -0.2320    0.0000 C   0  0  0  0  0  0  0  0  0  0  0  0
   -7.2594    1.2280    0.0000 C   0  0  0  0  0  0  0  0  0  0  0  0
   -6.1671    2.2561    0.0000 C   0  0  0  0  0  0  0  0  0  0  0  0
   -4.7306    1.8242    0.0000 C   0  0  0  0  0  0  0  0  0  0  0  0
   -4.3864    0.3642    0.0000 C   0  0  0  0  0  0  0  0  0  0  0  0
   -2.9500   -0.0676    0.0000 C   0  0  0  0  0  0  0  0  0  0  0  0
   -1.8577    0.9604    0.0000 N   0  0  0  0  0  0  0  0  0  0  0  0
   -0.4212    0.5286    0.0000 C   0  0  0  0  0  0  0  0  0  0  0  0
    0.6711    1.5566    0.0000 C   0  0  0  0  0  0  0  0  0  0  0  0
    2.1075    1.1248    0.0000 N   0  0  0  0  0  0  0  0  0  0  0  0
    2.4518   -0.3352    0.0000 C   0  0  0  0  0  0  0  0  0  0  0  0
    3.8882   -0.7671    0.0000 C   0  0  0  0  0  0  0  0  0  0  0  0
    4.9805    0.2610    0.0000 N   0  0  0  0  0  0  0  0  0  0  0  0
    6.4170   -0.1709    0.0000 C   0  0  0  0  0  0  0  0  0  0  0  0
    6.7612   -1.6309    0.0000 C   0  0  0  0  0  0  0  0  0  0  0  0
    8.1977   -2.0627    0.0000 C   0  0  0  0  0  0  0  0  0  0  0  0
    9.2899   -1.0347    0.0000 C   0  0  0  0  0  0  0  0  0  0  0  0
    8.9457    0.4253    0.0000 C   0  0  0  0  0  0  0  0  0  0  0  0
    7.5092    0.8572    0.0000 C   0  0  0  0  0  0  0  0  0  0  0  0
    4.6363    1.7210    0.0000 C   0  0  0  0  0  0  0  0  0  0  0  0
    3.1998    2.1528    0.0000 C   0  0  0  0  0  0  0  0  0  0  0  0
   -2.6057   -1.5276    0.0000 C   0  0  0  0  0  0  0  0  0  0  0  0
   -3.6980   -2.5557    0.0000 C   0  0  0  0  0  0  0  0  0  0  0  0
   -5.1345   -2.1238    0.0000 C   0  0  0  0  0  0  0  0  0  0  0  0
   -5.4787   -0.6638    0.0000 C   0  0  0  0  0  0  0  0  0  0  0  0
  1  2  1  0
  2  3  1  0
  3  4  2  0
  4  5  1  0
  5  6  2  0
  6  7  1  0
  7  8  2  0
  8  9  1  0
  9 10  1  0
 10 11  1  0
 11 12  1  0
 12 13  1  0
 13 14  1  0
 14 15  1  0
 15 16  1  0
 16 17  1  0
 17 18  1  0
 18 19  1  0
 19 20  1  0
 20 21  1  0
 15 22  1  0
 22 23  1  0
  8 24  1  0
 24 25  2  0
 25 26  1  0
 26 27  2  0
 27  3  1  0
 27  7  1  0
 23 12  1  0
 21 16  1  0
M  END
>  <Compound_Key>  (1002) 
30

>  <Ki>  (1002) 
18.5

>  <database>  (1002) 
NewLiterature

>  <Document_ChEMBL_ID>  (1002) 
10.1038/s41598-023-39695-w

$$$$

     RDKit          2D

 21 23  0  0  0  0  0  0  0  0999 V2000
   -8.2486   -1.0818    0.0000 C   0  0  0  0  0  0  0  0  0  0  0  0
   -7.0298   -0.2074    0.0000 C   0  0  0  0  0  0  0  0  0  0  0  0
   -5.6632   -0.8258    0.0000 C   0  0  0  0  0  0  0  0  0  0  0  0
   -4.4444    0.0486    0.0000 N   0  0  0  0  0  0  0  0  0  0  0  0
   -4.5922    1.5413    0.0000 C   0  0  0  0  0  0  0  0  0  0  0  0
   -3.3734    2.4157    0.0000 C   0  0  0  0  0  0  0  0  0  0  0  0
   -2.0068    1.7973    0.0000 C   0  0  0  0  0  0  0  0  0  0  0  0
   -1.8590    0.3046    0.0000 C   0  0  0  0  0  0  0  0  0  0  0  0
   -0.4923   -0.3137    0.0000 C   0  0  0  0  0  0  0  0  0  0  0  0
    0.8112    0.4285    0.0000 C   0  0  0  0  0  0  0  0  0  0  0  0
    1.9199   -0.5819    0.0000 C   0  0  0  0  0  0  0  0  0  0  0  0
    3.3889   -0.2788    0.0000 C   0  0  0  0  0  0  0  0  0  0  0  0
    4.3859   -1.3996    0.0000 C   0  0  0  0  0  0  0  0  0  0  0  0
    5.8550   -1.0965    0.0000 C   0  0  0  0  0  0  0  0  0  0  0  0
    6.3271    0.3272    0.0000 C   0  0  0  0  0  0  0  0  0  0  0  0
    7.7961    0.6303    0.0000 C   0  0  0  0  0  0  0  0  0  0  0  0
    5.3301    1.4480    0.0000 C   0  0  0  0  0  0  0  0  0  0  0  0
    3.8610    1.1449    0.0000 C   0  0  0  0  0  0  0  0  0  0  0  0
    1.3015   -1.9485    0.0000 N   0  0  0  0  0  0  0  0  0  0  0  0
   -0.1893   -1.7828    0.0000 O   0  0  0  0  0  0  0  0  0  0  0  0
   -3.0778   -0.5697    0.0000 C   0  0  0  0  0  0  0  0  0  0  0  0
  1  2  1  0
  2  3  1  0
  3  4  1  0
  4  5  1  0
  5  6  1  0
  6  7  1  0
  7  8  2  0
  8  9  1  0
  9 10  2  0
 10 11  1  0
 11 12  1  0
 12 13  2  0
 13 14  1  0
 14 15  2  0
 15 16  1  0
 15 17  1  0
 17 18  2  0
 11 19  2  0
 19 20  1  0
  8 21  1  0
 21  4  1  0
 20  9  1  0
 18 12  1  0
M  END
>  <Compound_Key>  (1003) 
PD144418

>  <Ki>  (1003) 
1377.0

>  <database>  (1003) 
NewLiterature

>  <Document_ChEMBL_ID>  (1003) 
10.1016/j.bmc.2022.117032

$$$$

     RDKit          2D

 23 25  0  0  0  0  0  0  0  0999 V2000
   -2.4338    2.0740    0.0000 O   0  0  0  0  0  0  0  0  0  0  0  0
   -2.7575    0.6093    0.0000 C   0  0  0  0  0  0  0  0  0  0  0  0
   -1.6509   -0.4033    0.0000 N   0  0  0  0  0  0  0  0  0  0  0  0
   -0.2206    0.0487    0.0000 C   0  0  0  0  0  0  0  0  0  0  0  0
    0.8860   -0.9639    0.0000 C   0  0  0  0  0  0  0  0  0  0  0  0
    2.3163   -0.5118    0.0000 C   0  0  0  0  0  0  0  0  0  0  0  0
    2.6399    0.9528    0.0000 N   0  0  0  0  0  0  0  0  0  0  0  0
    4.0702    1.4049    0.0000 C   0  0  0  0  0  0  0  0  0  0  0  0
    5.1768    0.3922    0.0000 C   0  0  0  0  0  0  0  0  0  0  0  0
    4.8532   -1.0724    0.0000 C   0  0  0  0  0  0  0  0  0  0  0  0
    5.9598   -2.0851    0.0000 C   0  0  0  0  0  0  0  0  0  0  0  0
    7.3900   -1.6330    0.0000 C   0  0  0  0  0  0  0  0  0  0  0  0
    7.7137   -0.1684    0.0000 C   0  0  0  0  0  0  0  0  0  0  0  0
    6.6071    0.8443    0.0000 C   0  0  0  0  0  0  0  0  0  0  0  0
    1.5333    1.9654    0.0000 C   0  0  0  0  0  0  0  0  0  0  0  0
    0.1031    1.5134    0.0000 C   0  0  0  0  0  0  0  0  0  0  0  0
   -4.1877    0.1573    0.0000 C   0  0  0  0  0  0  0  0  0  0  0  0
   -5.2943    1.1699    0.0000 C   0  0  0  0  0  0  0  0  0  0  0  0
   -6.7246    0.7179    0.0000 C   0  0  0  0  0  0  0  0  0  0  0  0
   -7.0483   -0.7468    0.0000 C   0  0  0  0  0  0  0  0  0  0  0  0
   -8.4785   -1.1988    0.0000 I   0  0  0  0  0  0  0  0  0  0  0  0
   -5.9417   -1.7594    0.0000 C   0  0  0  0  0  0  0  0  0  0  0  0
   -4.5114   -1.3074    0.0000 C   0  0  0  0  0  0  0  0  0  0  0  0
  1  2  2  0
  2  3  1  0
  3  4  1  0
  4  5  1  0
  5  6  1  0
  6  7  1  0
  7  8  1  0
  8  9  1  0
  9 10  2  0
 10 11  1  0
 11 12  2  0
 12 13  1  0
 13 14  2  0
  7 15  1  0
 15 16  1  0
  2 17  1  0
 17 18  2  0
 18 19  1  0
 19 20  2  0
 20 21  1  0
 20 22  1  0
 22 23  2  0
 16  4  1  0
 23 17  1  0
 14  9  1  0
M  END
>  <Compound_Key>  (1004) 
4-IBP

>  <Ki>  (1004) 
25.2

>  <database>  (1004) 
NewLiterature

>  <Document_ChEMBL_ID>  (1004) 
10.1016/j.bmc.2022.117033

$$$$

     RDKit          2D

 26 27  0  0  0  0  0  0  0  0999 V2000
   -8.6730   -0.9328    0.0000 C   0  0  0  0  0  0  0  0  0  0  0  0
   -7.2070   -1.2504    0.0000 C   0  0  0  0  0  0  0  0  0  0  0  0
   -6.1989   -0.1396    0.0000 C   0  0  0  0  0  0  0  0  0  0  0  0
   -4.7329   -0.4572    0.0000 N   0  0  0  0  0  0  0  0  0  0  0  0
   -4.2750   -1.8856    0.0000 C   0  0  0  0  0  0  0  0  0  0  0  0
   -5.2830   -2.9964    0.0000 C   0  0  0  0  0  0  0  0  0  0  0  0
   -4.8251   -4.4248    0.0000 C   0  0  0  0  0  0  0  0  0  0  0  0
   -3.7249    0.6536    0.0000 C   0  0  0  0  0  0  0  0  0  0  0  0
   -2.2589    0.3360    0.0000 C   0  0  0  0  0  0  0  0  0  0  0  0
   -1.2509    1.4468    0.0000 C   0  0  0  0  0  0  0  0  0  0  0  0
   -1.7088    2.8752    0.0000 C   0  0  0  0  0  0  0  0  0  0  0  0
   -0.7008    3.9860    0.0000 C   0  0  0  0  0  0  0  0  0  0  0  0
    0.7652    3.6684    0.0000 C   0  0  0  0  0  0  0  0  0  0  0  0
    1.7732    4.7792    0.0000 O   0  0  0  0  0  0  0  0  0  0  0  0
    3.2392    4.4616    0.0000 C   0  0  0  0  0  0  0  0  0  0  0  0
    1.2231    2.2400    0.0000 C   0  0  0  0  0  0  0  0  0  0  0  0
    2.6891    1.9224    0.0000 O   0  0  0  0  0  0  0  0  0  0  0  0
    3.1471    0.4940    0.0000 C   0  0  0  0  0  0  0  0  0  0  0  0
    4.6131    0.1764    0.0000 C   0  0  0  0  0  0  0  0  0  0  0  0
    5.0711   -1.2519    0.0000 C   0  0  0  0  0  0  0  0  0  0  0  0
    4.0630   -2.3627    0.0000 C   0  0  0  0  0  0  0  0  0  0  0  0
    4.5210   -3.7911    0.0000 C   0  0  0  0  0  0  0  0  0  0  0  0
    5.9870   -4.1087    0.0000 C   0  0  0  0  0  0  0  0  0  0  0  0
    6.9950   -2.9979    0.0000 C   0  0  0  0  0  0  0  0  0  0  0  0
    6.5370   -1.5695    0.0000 C   0  0  0  0  0  0  0  0  0  0  0  0
    0.2151    1.1292    0.0000 C   0  0  0  0  0  0  0  0  0  0  0  0
  1  2  1  0
  2  3  1  0
  3  4  1  0
  4  5  1  0
  5  6  1  0
  6  7  1  0
  4  8  1  0
  8  9  1  0
  9 10  1  0
 10 11  2  0
 11 12  1  0
 12 13  2  0
 13 14  1  0
 14 15  1  0
 13 16  1  0
 16 17  1  0
 17 18  1  0
 18 19  1  0
 19 20  1  0
 20 21  2  0
 21 22  1  0
 22 23  2  0
 23 24  1  0
 24 25  2  0
 16 26  2  0
 26 10  1  0
 25 20  1  0
M  END
>  <Compound_Key>  (1005) 
NE-100

>  <Ki>  (1005) 
170.0

>  <database>  (1005) 
NewLiterature

>  <Document_ChEMBL_ID>  (1005) 
10.1016/j.bmc.2022.117034

$$$$

     RDKit          2D

 23 25  0  0  0  0  0  0  0  0999 V2000
   -1.0077    2.4729    0.0000 O   0  0  0  0  0  0  0  0  0  0  0  0
   -1.3019    1.0021    0.0000 C   0  0  0  0  0  0  0  0  0  0  0  0
   -0.1753    0.0118    0.0000 O   0  0  0  0  0  0  0  0  0  0  0  0
    1.2457    0.4924    0.0000 C   0  0  0  0  0  0  0  0  0  0  0  0
    2.3723   -0.4979    0.0000 C   0  0  0  0  0  0  0  0  0  0  0  0
    3.7933   -0.0173    0.0000 N   0  0  0  0  0  0  0  0  0  0  0  0
    4.9199   -1.0075    0.0000 C   0  0  0  0  0  0  0  0  0  0  0  0
    6.3409   -0.5270    0.0000 C   0  0  0  0  0  0  0  0  0  0  0  0
    6.6351    0.9439    0.0000 O   0  0  0  0  0  0  0  0  0  0  0  0
    5.5085    1.9342    0.0000 C   0  0  0  0  0  0  0  0  0  0  0  0
    4.0875    1.4536    0.0000 C   0  0  0  0  0  0  0  0  0  0  0  0
   -2.7228    0.5215    0.0000 C   0  0  0  0  0  0  0  0  0  0  0  0
   -2.0028   -0.7944    0.0000 C   0  0  0  0  0  0  0  0  0  0  0  0
   -2.7824   -2.0759    0.0000 C   0  0  0  0  0  0  0  0  0  0  0  0
   -2.0624   -3.3918    0.0000 C   0  0  0  0  0  0  0  0  0  0  0  0
   -0.5628   -3.4262    0.0000 C   0  0  0  0  0  0  0  0  0  0  0  0
    0.2168   -2.1447    0.0000 C   0  0  0  0  0  0  0  0  0  0  0  0
   -0.5032   -0.8288    0.0000 C   0  0  0  0  0  0  0  0  0  0  0  0
   -2.9494    2.0043    0.0000 C   0  0  0  0  0  0  0  0  0  0  0  0
   -4.3468    2.5495    0.0000 C   0  0  0  0  0  0  0  0  0  0  0  0
   -5.5177    1.6119    0.0000 C   0  0  0  0  0  0  0  0  0  0  0  0
   -5.2911    0.1291    0.0000 C   0  0  0  0  0  0  0  0  0  0  0  0
   -3.8937   -0.4161    0.0000 C   0  0  0  0  0  0  0  0  0  0  0  0
  1  2  2  0
  2  3  1  0
  3  4  1  0
  4  5  1  0
  5  6  1  0
  6  7  1  0
  7  8  1  0
  8  9  1  0
  9 10  1  0
 10 11  1  0
  2 12  1  0
 12 13  1  0
 13 14  2  0
 14 15  1  0
 15 16  2  0
 16 17  1  0
 17 18  2  0
 12 19  1  0
 19 20  1  0
 20 21  1  0
 21 22  1  0
 22 23  1  0
 11  6  1  0
 23 12  1  0
 18 13  1  0
M  END
>  <Compound_Key>  (1006) 
PRE-084

>  <Ki>  (1006) 
32100.0

>  <database>  (1006) 
NewLiterature

>  <Document_ChEMBL_ID>  (1006) 
10.1016/j.bmc.2022.117035

$$$$

     RDKit          2D

 27 30  0  0  0  0  0  0  0  0999 V2000
   -9.4439   -0.8282    0.0000 C   0  0  0  0  0  0  0  0  0  0  0  0
   -8.0074   -1.2600    0.0000 O   0  0  0  0  0  0  0  0  0  0  0  0
   -6.9152   -0.2320    0.0000 C   0  0  0  0  0  0  0  0  0  0  0  0
   -7.2594    1.2280    0.0000 C   0  0  0  0  0  0  0  0  0  0  0  0
   -6.1671    2.2561    0.0000 C   0  0  0  0  0  0  0  0  0  0  0  0
   -4.7306    1.8242    0.0000 C   0  0  0  0  0  0  0  0  0  0  0  0
   -4.3864    0.3642    0.0000 C   0  0  0  0  0  0  0  0  0  0  0  0
   -5.4787   -0.6638    0.0000 C   0  0  0  0  0  0  0  0  0  0  0  0
   -5.1345   -2.1238    0.0000 C   0  0  0  0  0  0  0  0  0  0  0  0
   -3.6980   -2.5557    0.0000 C   0  0  0  0  0  0  0  0  0  0  0  0
   -2.6057   -1.5276    0.0000 C   0  0  0  0  0  0  0  0  0  0  0  0
   -2.9500   -0.0676    0.0000 C   0  0  0  0  0  0  0  0  0  0  0  0
   -1.8577    0.9604    0.0000 C   0  0  0  0  0  0  0  0  0  0  0  0
   -0.4212    0.5286    0.0000 C   0  0  0  0  0  0  0  0  0  0  0  0
    0.6711    1.5566    0.0000 C   0  0  0  0  0  0  0  0  0  0  0  0
    2.1075    1.1248    0.0000 N   0  0  0  0  0  0  0  0  0  0  0  0
    2.4518   -0.3352    0.0000 C   0  0  0  0  0  0  0  0  0  0  0  0
    3.8882   -0.7671    0.0000 C   0  0  0  0  0  0  0  0  0  0  0  0
    4.9805    0.2610    0.0000 N   0  0  0  0  0  0  0  0  0  0  0  0
    6.4170   -0.1709    0.0000 C   0  0  0  0  0  0  0  0  0  0  0  0
    6.7612   -1.6309    0.0000 C   0  0  0  0  0  0  0  0  0  0  0  0
    8.1977   -2.0627    0.0000 C   0  0  0  0  0  0  0  0  0  0  0  0
    9.2899   -1.0347    0.0000 C   0  0  0  0  0  0  0  0  0  0  0  0
    8.9457    0.4253    0.0000 C   0  0  0  0  0  0  0  0  0  0  0  0
    7.5092    0.8572    0.0000 C   0  0  0  0  0  0  0  0  0  0  0  0
    4.6363    1.7210    0.0000 C   0  0  0  0  0  0  0  0  0  0  0  0
    3.1998    2.1528    0.0000 C   0  0  0  0  0  0  0  0  0  0  0  0
  1  2  1  0
  2  3  1  0
  3  4  2  0
  4  5  1  0
  5  6  2  0
  6  7  1  0
  7  8  2  0
  8  9  1  0
  9 10  1  0
 10 11  1  0
 11 12  1  0
 12 13  1  0
 13 14  1  0
 14 15  1  0
 15 16  1  0
 16 17  1  0
 17 18  1  0
 18 19  1  0
 19 20  1  0
 20 21  1  0
 21 22  1  0
 22 23  1  0
 23 24  1  0
 24 25  1  0
 19 26  1  0
 26 27  1  0
  8  3  1  0
 27 16  1  0
 12  7  1  0
 25 20  1  0
M  END
>  <Compound_Key>  (1007) 
PB28

>  <Ki>  (1007) 
0.68

>  <database>  (1007) 
NewLiterature

>  <Document_ChEMBL_ID>  (1007) 
10.1016/j.bmc.2022.117036

$$$$

     RDKit          2D

 27 30  0  0  0  0  0  0  0  0999 V2000
   -3.8151    2.0698    0.0000 O   0  0  0  0  0  0  0  0  0  0  0  0
   -4.0425    0.5871    0.0000 C   0  0  0  0  0  0  0  0  0  0  0  0
   -2.8721   -0.3511    0.0000 C   0  0  0  0  0  0  0  0  0  0  0  0
   -1.4744    0.1933    0.0000 N   0  0  0  0  0  0  0  0  0  0  0  0
   -0.3040   -0.7449    0.0000 C   0  0  0  0  0  0  0  0  0  0  0  0
    1.0937   -0.2004    0.0000 C   0  0  0  0  0  0  0  0  0  0  0  0
    1.3210    1.2822    0.0000 C   0  0  0  0  0  0  0  0  0  0  0  0
    2.7187    1.8267    0.0000 C   0  0  0  0  0  0  0  0  0  0  0  0
    3.8891    0.8885    0.0000 N   0  0  0  0  0  0  0  0  0  0  0  0
    3.8180   -0.6098    0.0000 C   0  0  0  0  0  0  0  0  0  0  0  0
    5.2210   -1.1405    0.0000 C   0  0  0  0  0  0  0  0  0  0  0  0
    5.7654   -2.5382    0.0000 C   0  0  0  0  0  0  0  0  0  0  0  0
    7.2481   -2.7655    0.0000 C   0  0  0  0  0  0  0  0  0  0  0  0
    8.1863   -1.5952    0.0000 C   0  0  0  0  0  0  0  0  0  0  0  0
    7.6419   -0.1975    0.0000 C   0  0  0  0  0  0  0  0  0  0  0  0
    6.1592    0.0299    0.0000 C   0  0  0  0  0  0  0  0  0  0  0  0
    5.3360    1.2838    0.0000 C   0  0  0  0  0  0  0  0  0  0  0  0
    5.8667    2.6868    0.0000 O   0  0  0  0  0  0  0  0  0  0  0  0
    0.1507    2.2205    0.0000 C   0  0  0  0  0  0  0  0  0  0  0  0
   -1.2471    1.6760    0.0000 C   0  0  0  0  0  0  0  0  0  0  0  0
   -5.4402    0.0427    0.0000 C   0  0  0  0  0  0  0  0  0  0  0  0
   -6.6105    0.9809    0.0000 C   0  0  0  0  0  0  0  0  0  0  0  0
   -8.0082    0.4364    0.0000 C   0  0  0  0  0  0  0  0  0  0  0  0
   -8.2356   -1.0462    0.0000 C   0  0  0  0  0  0  0  0  0  0  0  0
   -9.6333   -1.5907    0.0000 F   0  0  0  0  0  0  0  0  0  0  0  0
   -7.0652   -1.9845    0.0000 C   0  0  0  0  0  0  0  0  0  0  0  0
   -5.6675   -1.4400    0.0000 C   0  0  0  0  0  0  0  0  0  0  0  0
  1  2  2  0
  2  3  1  0
  3  4  1  0
  4  5  1  0
  5  6  1  0
  6  7  1  0
  7  8  1  0
  8  9  1  0
  9 10  1  0
 10 11  1  0
 11 12  2  0
 12 13  1  0
 13 14  2  0
 14 15  1  0
 15 16  2  0
 16 17  1  0
 17 18  2  0
  7 19  1  0
 19 20  1  0
  2 21  1  0
 21 22  2  0
 22 23  1  0
 23 24  2  0
 24 25  1  0
 24 26  1  0
 26 27  2  0
 20  4  1  0
 27 21  1  0
 17  9  1  0
 16 11  1  0
M  END
>  <Compound_Key>  (1008) 
Roluperidone(MIN-10)

>  <Ki>  (1008) 
8.19

>  <database>  (1008) 
NewLiterature

>  <Document_ChEMBL_ID>  (1008) 
10.1016/j.bmc.2022.117037

$$$$

     RDKit          2D

 24 27  0  0  0  0  0  0  0  0999 V2000
    1.2078   -0.0168    0.0000 C   0  0  0  0  0  0  0  0  0  0  0  0
    2.2005   -1.1413    0.0000 C   0  0  0  0  0  0  0  0  0  0  0  0
    3.6707   -0.8439    0.0000 C   0  0  0  0  0  0  0  0  0  0  0  0
    4.7755   -1.8585    0.0000 C   0  0  0  0  0  0  0  0  0  0  0  0
    6.0819   -1.1213    0.0000 N   0  0  0  0  0  0  0  0  0  0  0  0
    5.7844    0.3489    0.0000 C   0  0  0  0  0  0  0  0  0  0  0  0
    6.6780    1.5537    0.0000 N   0  0  0  0  0  0  0  0  0  0  0  0
    6.0814    2.9300    0.0000 C   0  0  0  0  0  0  0  0  0  0  0  0
    4.5912    3.1014    0.0000 C   0  0  0  0  0  0  0  0  0  0  0  0
    3.6976    1.8966    0.0000 C   0  0  0  0  0  0  0  0  0  0  0  0
    4.2943    0.5204    0.0000 C   0  0  0  0  0  0  0  0  0  0  0  0
    1.7230   -2.5633    0.0000 C   0  0  0  0  0  0  0  0  0  0  0  0
    0.2528   -2.8607    0.0000 C   0  0  0  0  0  0  0  0  0  0  0  0
   -0.7399   -1.7362    0.0000 N   0  0  0  0  0  0  0  0  0  0  0  0
   -2.2101   -2.0337    0.0000 C   0  0  0  0  0  0  0  0  0  0  0  0
   -3.2028   -0.9091    0.0000 C   0  0  0  0  0  0  0  0  0  0  0  0
   -4.6730   -1.2066    0.0000 C   0  0  0  0  0  0  0  0  0  0  0  0
   -5.6657   -0.0821    0.0000 C   0  0  0  0  0  0  0  0  0  0  0  0
   -5.1882    1.3399    0.0000 C   0  0  0  0  0  0  0  0  0  0  0  0
   -6.1809    2.4644    0.0000 C   0  0  0  0  0  0  0  0  0  0  0  0
   -7.6511    2.1670    0.0000 C   0  0  0  0  0  0  0  0  0  0  0  0
   -8.1287    0.7450    0.0000 C   0  0  0  0  0  0  0  0  0  0  0  0
   -7.1360   -0.3795    0.0000 C   0  0  0  0  0  0  0  0  0  0  0  0
   -0.2624   -0.3143    0.0000 C   0  0  0  0  0  0  0  0  0  0  0  0
  1  2  2  0
  2  3  1  0
  3  4  2  0
  4  5  1  0
  5  6  1  0
  6  7  2  0
  7  8  1  0
  8  9  2  0
  9 10  1  0
 10 11  2  0
  2 12  1  0
 12 13  1  0
 13 14  1  0
 14 15  1  0
 15 16  1  0
 16 17  1  0
 17 18  1  0
 18 19  2  0
 19 20  1  0
 20 21  2  0
 21 22  1  0
 22 23  2  0
 14 24  1  0
 24  1  1  0
 11  3  1  0
 23 18  1  0
 11  6  1  0
M  END
>  <Compound_Key>  (1009) 
Z1241145220

>  <Ki>  (1009) 
3.7

>  <database>  (1009) 
NewLiterature

>  <Document_ChEMBL_ID>  (1009) 
10.1016/j.bmc.2022.117038

$$$$

     RDKit          2D

 25 27  0  0  0  0  0  0  0  0999 V2000
   -6.1881    2.2658    0.0000 C   0  0  0  0  0  0  0  0  0  0  0  0
   -5.5771    0.8959    0.0000 N   0  0  0  0  0  0  0  0  0  0  0  0
   -6.4580   -0.3182    0.0000 C   0  0  0  0  0  0  0  0  0  0  0  0
   -7.9499   -0.1624    0.0000 O   0  0  0  0  0  0  0  0  0  0  0  0
   -5.8470   -1.6881    0.0000 C   0  0  0  0  0  0  0  0  0  0  0  0
   -4.3551   -1.8439    0.0000 C   0  0  0  0  0  0  0  0  0  0  0  0
   -3.4742   -0.6298    0.0000 C   0  0  0  0  0  0  0  0  0  0  0  0
   -1.9823   -0.7856    0.0000 C   0  0  0  0  0  0  0  0  0  0  0  0
   -1.1014    0.4285    0.0000 C   0  0  0  0  0  0  0  0  0  0  0  0
    0.3904    0.2727    0.0000 C   0  0  0  0  0  0  0  0  0  0  0  0
    1.0014   -1.0972    0.0000 N   0  0  0  0  0  0  0  0  0  0  0  0
    2.4933   -1.2530    0.0000 C   0  0  0  0  0  0  0  0  0  0  0  0
    2.3375   -2.7449    0.0000 C   0  0  0  0  0  0  0  0  0  0  0  0
    2.6491    0.2389    0.0000 C   0  0  0  0  0  0  0  0  0  0  0  0
    3.9852   -1.4088    0.0000 C   0  0  0  0  0  0  0  0  0  0  0  0
    4.5962   -2.7788    0.0000 O   0  0  0  0  0  0  0  0  0  0  0  0
    4.8661   -0.1947    0.0000 C   0  0  0  0  0  0  0  0  0  0  0  0
    6.3580   -0.3505    0.0000 C   0  0  0  0  0  0  0  0  0  0  0  0
    7.2389    0.8636    0.0000 C   0  0  0  0  0  0  0  0  0  0  0  0
    6.6278    2.2335    0.0000 C   0  0  0  0  0  0  0  0  0  0  0  0
    5.1360    2.3893    0.0000 C   0  0  0  0  0  0  0  0  0  0  0  0
    4.2551    1.1752    0.0000 C   0  0  0  0  0  0  0  0  0  0  0  0
   -1.7125    1.7984    0.0000 C   0  0  0  0  0  0  0  0  0  0  0  0
   -3.2043    1.9542    0.0000 C   0  0  0  0  0  0  0  0  0  0  0  0
   -4.0852    0.7401    0.0000 C   0  0  0  0  0  0  0  0  0  0  0  0
  1  2  1  0
  2  3  1  0
  3  4  2  0
  3  5  1  0
  5  6  1  0
  6  7  1  0
  7  8  2  0
  8  9  1  0
  9 10  1  0
 10 11  1  0
 11 12  1  0
 12 13  1  0
 12 14  1  0
 12 15  1  0
 15 16  1  6
 15 17  1  0
 17 18  2  0
 18 19  1  0
 19 20  2  0
 20 21  1  0
 21 22  2  0
  9 23  2  0
 23 24  1  0
 24 25  2  0
 25  2  1  0
 25  7  1  0
 22 17  1  0
M  END
>  <Compound_Key>  (1010) 
Z4857158944

>  <Ki>  (1010) 
4.0

>  <database>  (1010) 
NewLiterature

>  <Document_ChEMBL_ID>  (1010) 
10.1016/j.bmc.2022.117039

$$$$

     RDKit          2D

 33 35  0  0  0  0  0  0  0  0999 V2000
   -4.2621   -3.1947    0.0000 C   0  0  0  0  0  0  0  0  0  0  0  0
   -2.9114   -2.5425    0.0000 O   0  0  0  0  0  0  0  0  0  0  0  0
   -2.8009   -1.0465    0.0000 C   0  0  0  0  0  0  0  0  0  0  0  0
   -4.0411   -0.2029    0.0000 C   0  0  0  0  0  0  0  0  0  0  0  0
   -3.9306    1.2930    0.0000 C   0  0  0  0  0  0  0  0  0  0  0  0
   -2.5799    1.9453    0.0000 C   0  0  0  0  0  0  0  0  0  0  0  0
   -2.4694    3.4412    0.0000 C   0  0  0  0  0  0  0  0  0  0  0  0
   -1.3396    1.1017    0.0000 C   0  0  0  0  0  0  0  0  0  0  0  0
   -1.4501   -0.3943    0.0000 C   0  0  0  0  0  0  0  0  0  0  0  0
   -0.2098   -1.2379    0.0000 N   0  0  0  0  0  0  0  0  0  0  0  0
    1.1409   -0.5856    0.0000 C   0  0  0  0  0  0  0  0  0  0  0  0
    1.2514    0.9103    0.0000 O   0  0  0  0  0  0  0  0  0  0  0  0
    2.3812   -1.4293    0.0000 O   0  0  0  0  0  0  0  0  0  0  0  0
    3.7319   -0.7770    0.0000 C   0  0  0  0  0  0  0  0  0  0  0  0
    4.9722   -1.6206    0.0000 C   0  0  0  0  0  0  0  0  0  0  0  0
    6.3229   -0.9684    0.0000 C   0  0  0  0  0  0  0  0  0  0  0  0
    7.6737   -0.3161    0.0000 C   0  0  0  0  0  0  0  0  0  0  0  0
    7.7842    1.1798    0.0000 C   0  0  0  0  0  0  0  0  0  0  0  0
    6.5439    2.0235    0.0000 C   0  0  0  0  0  0  0  0  0  0  0  0
    5.1932    1.3712    0.0000 C   0  0  0  0  0  0  0  0  0  0  0  0
    3.8424    0.7189    0.0000 C   0  0  0  0  0  0  0  0  0  0  0  0
    5.0827   -0.1247    0.0000 N   0  0  0  0  0  0  0  0  0  0  0  0
    3.7319   -0.7770    0.0000 C   0  0  0  0  0  0  0  0  0  0  0  0
    2.4917    0.0666    0.0000 C   0  0  0  0  0  0  0  0  0  0  0  0
    1.1409   -0.5856    0.0000 C   0  0  0  0  0  0  0  0  0  0  0  0
   -0.0994    0.2580    0.0000 C   0  0  0  0  0  0  0  0  0  0  0  0
   -1.4501   -0.3943    0.0000 C   0  0  0  0  0  0  0  0  0  0  0  0
   -2.6904    0.4494    0.0000 C   0  0  0  0  0  0  0  0  0  0  0  0
   -4.0411   -0.2029    0.0000 C   0  0  0  0  0  0  0  0  0  0  0  0
   -5.2814    0.6408    0.0000 C   0  0  0  0  0  0  0  0  0  0  0  0
   -6.6321   -0.0115    0.0000 C   0  0  0  0  0  0  0  0  0  0  0  0
   -7.8724    0.8321    0.0000 C   0  0  0  0  0  0  0  0  0  0  0  0
   -9.2232    0.1799    0.0000 N   0  0  0  0  0  0  0  0  0  0  0  0
  1  2  1  0
  2  3  1  0
  3  4  2  0
  4  5  1  0
  5  6  2  0
  6  7  1  0
  6  8  1  0
  8  9  2  0
  9 10  1  0
 10 11  1  0
 11 12  2  0
 11 13  1  0
 13 14  1  0
 14 15  1  0
 15 16  1  0
 16 17  1  0
 17 18  1  0
 18 19  1  0
 19 20  1  0
 20 21  1  0
 20 22  1  0
 22 23  1  0
 23 24  1  0
 24 25  1  0
 25 26  1  0
 26 27  1  0
 27 28  1  0
 28 29  1  0
 29 30  1  0
 30 31  1  0
 31 32  1  0
 32 33  1  0
  9  3  1  0
 21 14  1  0
 22 16  1  0
M  END
>  <Compound_Key>  (1011) 
SW43

>  <Ki>  (1011) 
7.7

>  <database>  (1011) 
NewLiterature

>  <Document_ChEMBL_ID>  (1011) 
10.1016/j.bmc.2022.117040

$$$$

     RDKit          2D

 34 39  0  0  0  0  0  0  0  0999 V2000
   -9.1951   -4.4538    0.0000 F   0  0  0  0  0  0  0  0  0  0  0  0
   -8.1869   -3.3432    0.0000 C   0  0  0  0  0  0  0  0  0  0  0  0
   -8.6446   -1.9147    0.0000 C   0  0  0  0  0  0  0  0  0  0  0  0
   -7.6365   -0.8041    0.0000 C   0  0  0  0  0  0  0  0  0  0  0  0
   -6.1705   -1.1218    0.0000 C   0  0  0  0  0  0  0  0  0  0  0  0
   -5.1623   -0.0112    0.0000 N   0  0  0  0  0  0  0  0  0  0  0  0
   -3.6712   -0.1740    0.0000 C   0  0  0  0  0  0  0  0  0  0  0  0
   -3.0555    1.1938    0.0000 C   0  0  0  0  0  0  0  0  0  0  0  0
   -1.5871    1.4998    0.0000 C   0  0  0  0  0  0  0  0  0  0  0  0
   -0.5879    0.3810    0.0000 C   0  0  0  0  0  0  0  0  0  0  0  0
    0.8806    0.6869    0.0000 C   0  0  0  0  0  0  0  0  0  0  0  0
    1.8798   -0.4318    0.0000 C   0  0  0  0  0  0  0  0  0  0  0  0
    3.3482   -0.1259    0.0000 N   0  0  0  0  0  0  0  0  0  0  0  0
    4.3474   -1.2446    0.0000 C   0  0  0  0  0  0  0  0  0  0  0  0
    5.8159   -0.9387    0.0000 C   0  0  0  0  0  0  0  0  0  0  0  0
    6.2852    0.4860    0.0000 C   0  0  0  0  0  0  0  0  0  0  0  0
    5.2860    1.6048    0.0000 C   0  0  0  0  0  0  0  0  0  0  0  0
    3.8175    1.2988    0.0000 C   0  0  0  0  0  0  0  0  0  0  0  0
    6.9008    1.8538    0.0000 O   0  0  0  0  0  0  0  0  0  0  0  0
    8.3919    1.6910    0.0000 C   0  0  0  0  0  0  0  0  0  0  0  0
    8.6979    0.2226    0.0000 C   0  0  0  0  0  0  0  0  0  0  0  0
    9.9939   -0.5327    0.0000 C   0  0  0  0  0  0  0  0  0  0  0  0
    9.9878   -2.0327    0.0000 C   0  0  0  0  0  0  0  0  0  0  0  0
    8.6858   -2.7774    0.0000 C   0  0  0  0  0  0  0  0  0  0  0  0
    7.3898   -2.0222    0.0000 C   0  0  0  0  0  0  0  0  0  0  0  0
    7.3958   -0.5222    0.0000 C   0  0  0  0  0  0  0  0  0  0  0  0
   -4.1662    2.2020    0.0000 C   0  0  0  0  0  0  0  0  0  0  0  0
   -4.1601    3.7020    0.0000 C   0  0  0  0  0  0  0  0  0  0  0  0
   -5.4561    4.4572    0.0000 C   0  0  0  0  0  0  0  0  0  0  0  0
   -6.7582    3.7125    0.0000 C   0  0  0  0  0  0  0  0  0  0  0  0
   -6.7642    2.2125    0.0000 C   0  0  0  0  0  0  0  0  0  0  0  0
   -5.4683    1.4573    0.0000 C   0  0  0  0  0  0  0  0  0  0  0  0
   -5.7127   -2.5503    0.0000 C   0  0  0  0  0  0  0  0  0  0  0  0
   -6.7209   -3.6609    0.0000 C   0  0  0  0  0  0  0  0  0  0  0  0
  1  2  1  0
  2  3  2  0
  3  4  1  0
  4  5  2  0
  5  6  1  0
  6  7  1  0
  7  8  2  0
  8  9  1  0
  9 10  1  0
 10 11  1  0
 11 12  1  0
 12 13  1  0
 13 14  1  0
 14 15  1  0
 15 16  1  0
 16 17  1  0
 17 18  1  0
 16 19  1  0
 19 20  1  0
 20 21  1  0
 21 22  2  0
 22 23  1  0
 23 24  2  0
 24 25  1  0
 25 26  2  0
  8 27  1  0
 27 28  2  0
 28 29  1  0
 29 30  2  0
 30 31  1  0
 31 32  2  0
  5 33  1  0
 33 34  2  0
 34  2  1  0
 32  6  1  0
 18 13  1  0
 26 21  1  0
 32 27  1  0
 26 16  1  0
M  END
>  <Compound_Key>  (1012) 
Siramesine

>  <Ki>  (1012) 
10.5

>  <database>  (1012) 
NewLiterature

>  <Document_ChEMBL_ID>  (1012) 
10.1016/j.bmc.2022.117041

$$$$

     RDKit          2D

 32 34  0  0  0  0  0  0  0  0999 V2000
  -10.3064    0.6396    0.0000 C   0  0  0  0  0  0  0  0  0  0  0  0
   -9.4017   -0.5569    0.0000 O   0  0  0  0  0  0  0  0  0  0  0  0
   -7.9132   -0.3716    0.0000 C   0  0  0  0  0  0  0  0  0  0  0  0
   -7.3294    1.0102    0.0000 C   0  0  0  0  0  0  0  0  0  0  0  0
   -5.8409    1.1955    0.0000 C   0  0  0  0  0  0  0  0  0  0  0  0
   -4.9361   -0.0009    0.0000 C   0  0  0  0  0  0  0  0  0  0  0  0
   -5.5199   -1.3827    0.0000 C   0  0  0  0  0  0  0  0  0  0  0  0
   -7.0084   -1.5680    0.0000 C   0  0  0  0  0  0  0  0  0  0  0  0
   -7.5922   -2.9497    0.0000 O   0  0  0  0  0  0  0  0  0  0  0  0
   -6.6874   -4.1462    0.0000 C   0  0  0  0  0  0  0  0  0  0  0  0
   -3.4476    0.1844    0.0000 C   0  0  0  0  0  0  0  0  0  0  0  0
   -2.8639    1.5661    0.0000 N   0  0  0  0  0  0  0  0  0  0  0  0
   -1.3754    1.7515    0.0000 C   0  0  0  0  0  0  0  0  0  0  0  0
   -0.4706    0.5550    0.0000 C   0  0  0  0  0  0  0  0  0  0  0  0
    1.0179    0.7404    0.0000 C   0  0  0  0  0  0  0  0  0  0  0  0
    1.9226   -0.4561    0.0000 C   0  0  0  0  0  0  0  0  0  0  0  0
    3.4111   -0.2708    0.0000 N   0  0  0  0  0  0  0  0  0  0  0  0
    4.3159   -1.4672    0.0000 C   0  0  0  0  0  0  0  0  0  0  0  0
    3.7321   -2.8489    0.0000 O   0  0  0  0  0  0  0  0  0  0  0  0
    5.8044   -1.2819    0.0000 C   0  0  0  0  0  0  0  0  0  0  0  0
    6.7091   -2.4783    0.0000 C   0  0  0  0  0  0  0  0  0  0  0  0
    8.1977   -2.2930    0.0000 C   0  0  0  0  0  0  0  0  0  0  0  0
    9.1024   -3.4894    0.0000 C   0  0  0  0  0  0  0  0  0  0  0  0
    8.7814   -0.9112    0.0000 C   0  0  0  0  0  0  0  0  0  0  0  0
    7.8767    0.2852    0.0000 C   0  0  0  0  0  0  0  0  0  0  0  0
    6.3882    0.0999    0.0000 C   0  0  0  0  0  0  0  0  0  0  0  0
    5.4834    1.2963    0.0000 O   0  0  0  0  0  0  0  0  0  0  0  0
    6.0672    2.6781    0.0000 C   0  0  0  0  0  0  0  0  0  0  0  0
    5.1624    3.8745    0.0000 C   0  0  0  0  0  0  0  0  0  0  0  0
    5.7462    5.2562    0.0000 F   0  0  0  0  0  0  0  0  0  0  0  0
   -3.7686    2.7626    0.0000 C   0  0  0  0  0  0  0  0  0  0  0  0
   -5.2571    2.5773    0.0000 C   0  0  0  0  0  0  0  0  0  0  0  0
  1  2  1  0
  2  3  1  0
  3  4  2  0
  4  5  1  0
  5  6  2  0
  6  7  1  0
  7  8  2  0
  8  9  1  0
  9 10  1  0
  6 11  1  0
 11 12  1  0
 12 13  1  0
 13 14  1  0
 14 15  1  0
 15 16  1  0
 16 17  1  0
 17 18  1  0
 18 19  2  0
 18 20  1  0
 20 21  2  0
 21 22  1  0
 22 23  1  0
 22 24  2  0
 24 25  1  0
 25 26  2  0
 26 27  1  0
 27 28  1  0
 28 29  1  0
 29 30  1  0
 12 31  1  0
 31 32  1  0
  8  3  1  0
 26 20  1  0
 32  5  1  0
M  END
>  <Compound_Key>  (1013) 
18F-ISO-1

>  <Ki>  (1013) 
2.0

>  <database>  (1013) 
NewLiterature

>  <Document_ChEMBL_ID>  (1013) 
10.1016/j.bmc.2022.117042

$$$$

     RDKit          2D

 19 19  0  0  0  0  0  0  0  0999 V2000
   -7.4158    0.9456    0.0000 C   0  0  0  0  0  0  0  0  0  0  0  0
   -5.9908    1.4139    0.0000 C   0  0  0  0  0  0  0  0  0  0  0  0
   -4.8727    0.4139    0.0000 N   0  0  0  0  0  0  0  0  0  0  0  0
   -5.1797   -1.0544    0.0000 C   0  0  0  0  0  0  0  0  0  0  0  0
   -6.6047   -1.5226    0.0000 C   0  0  0  0  0  0  0  0  0  0  0  0
   -3.4477    0.8821    0.0000 C   0  0  0  0  0  0  0  0  0  0  0  0
   -2.3296   -0.1178    0.0000 C   0  0  0  0  0  0  0  0  0  0  0  0
   -0.9046    0.3504    0.0000 N   0  0  0  0  0  0  0  0  0  0  0  0
    0.2134   -0.6495    0.0000 C   0  0  0  0  0  0  0  0  0  0  0  0
   -0.0935   -2.1178    0.0000 O   0  0  0  0  0  0  0  0  0  0  0  0
    1.6385   -0.1813    0.0000 C   0  0  0  0  0  0  0  0  0  0  0  0
    1.9455    1.2870    0.0000 C   0  0  0  0  0  0  0  0  0  0  0  0
    3.3705    1.7553    0.0000 C   0  0  0  0  0  0  0  0  0  0  0  0
    4.4885    0.7553    0.0000 C   0  0  0  0  0  0  0  0  0  0  0  0
    5.9136    1.2236    0.0000 O   0  0  0  0  0  0  0  0  0  0  0  0
    7.0316    0.2236    0.0000 C   0  0  0  0  0  0  0  0  0  0  0  0
    4.1816   -0.7130    0.0000 C   0  0  0  0  0  0  0  0  0  0  0  0
    5.2996   -1.7129    0.0000 I   0  0  0  0  0  0  0  0  0  0  0  0
    2.7565   -1.1812    0.0000 C   0  0  0  0  0  0  0  0  0  0  0  0
  1  2  1  0
  2  3  1  0
  3  4  1  0
  4  5  1  0
  3  6  1  0
  6  7  1  0
  7  8  1  0
  8  9  1  0
  9 10  2  0
  9 11  1  0
 11 12  2  0
 12 13  1  0
 13 14  2  0
 14 15  1  0
 15 16  1  0
 14 17  1  0
 17 18  1  0
 17 19  2  0
 19 11  1  0
M  END
>  <Compound_Key>  (1014) 
P-123I-MBA

>  <Ki>  (1014) 
206.0

>  <database>  (1014) 
NewLiterature

>  <Document_ChEMBL_ID>  (1014) 
10.1016/j.bmc.2022.117043

$$$$

     RDKit          2D

 23 25  0  0  0  0  0  0  0  0999 V2000
   -0.4266   -4.2186    0.0000 O   0  0  0  0  0  0  0  0  0  0  0  0
    0.3330   -2.9251    0.0000 C   0  0  0  0  0  0  0  0  0  0  0  0
    1.8259   -2.7794    0.0000 S   0  0  0  0  0  0  0  0  0  0  0  0
    2.1486   -1.3145    0.0000 C   0  0  0  0  0  0  0  0  0  0  0  0
    3.4531   -0.5741    0.0000 C   0  0  0  0  0  0  0  0  0  0  0  0
    3.4642    0.9259    0.0000 C   0  0  0  0  0  0  0  0  0  0  0  0
    4.7688    1.6662    0.0000 C   0  0  0  0  0  0  0  0  0  0  0  0
    6.0622    0.9067    0.0000 C   0  0  0  0  0  0  0  0  0  0  0  0
    7.3668    1.6470    0.0000 C   0  0  0  0  0  0  0  0  0  0  0  0
    8.6602    0.8875    0.0000 F   0  0  0  0  0  0  0  0  0  0  0  0
    2.1708    1.6854    0.0000 C   0  0  0  0  0  0  0  0  0  0  0  0
    0.8662    0.9451    0.0000 C   0  0  0  0  0  0  0  0  0  0  0  0
    0.8551   -0.5549    0.0000 C   0  0  0  0  0  0  0  0  0  0  0  0
   -0.2670   -1.5503    0.0000 N   0  0  0  0  0  0  0  0  0  0  0  0
   -1.7319   -1.2276    0.0000 C   0  0  0  0  0  0  0  0  0  0  0  0
   -2.1848    0.2023    0.0000 C   0  0  0  0  0  0  0  0  0  0  0  0
   -3.6497    0.5250    0.0000 N   0  0  0  0  0  0  0  0  0  0  0  0
   -4.5760   -0.6547    0.0000 C   0  0  0  0  0  0  0  0  0  0  0  0
   -6.0760   -0.6661    0.0000 C   0  0  0  0  0  0  0  0  0  0  0  0
   -7.0201    0.4995    0.0000 C   0  0  0  0  0  0  0  0  0  0  0  0
   -6.6974    1.9644    0.0000 C   0  0  0  0  0  0  0  0  0  0  0  0
   -5.3509    2.6254    0.0000 C   0  0  0  0  0  0  0  0  0  0  0  0
   -3.9945    1.9849    0.0000 C   0  0  0  0  0  0  0  0  0  0  0  0
  1  2  2  0
  2  3  1  0
  3  4  1  0
  4  5  2  0
  5  6  1  0
  6  7  1  0
  7  8  1  0
  8  9  1  0
  9 10  1  0
  6 11  2  0
 11 12  1  0
 12 13  2  0
 13 14  1  0
 14 15  1  0
 15 16  1  0
 16 17  1  0
 17 18  1  0
 18 19  1  0
 19 20  1  0
 20 21  1  0
 21 22  1  0
 22 23  1  0
 14  2  1  0
 23 17  1  0
 13  4  1  0
M  END
>  <Compound_Key>  (1015) 
[18F]FTC-146

>  <Ki>  (1015) 
364.0

>  <database>  (1015) 
NewLiterature

>  <Document_ChEMBL_ID>  (1015) 
10.1016/j.bmc.2022.117044

$$$$

     RDKit          2D

 27 30  0  0  0  0  0  0  0  0999 V2000
   -9.4439   -0.8282    0.0000 C   0  0  0  0  0  0  0  0  0  0  0  0
   -8.0074   -1.2600    0.0000 O   0  0  0  0  0  0  0  0  0  0  0  0
   -6.9152   -0.2320    0.0000 C   0  0  0  0  0  0  0  0  0  0  0  0
   -7.2594    1.2280    0.0000 C   0  0  0  0  0  0  0  0  0  0  0  0
   -6.1671    2.2561    0.0000 C   0  0  0  0  0  0  0  0  0  0  0  0
   -4.7306    1.8242    0.0000 C   0  0  0  0  0  0  0  0  0  0  0  0
   -4.3864    0.3642    0.0000 C   0  0  0  0  0  0  0  0  0  0  0  0
   -2.9500   -0.0676    0.0000 C   0  0  0  0  0  0  0  0  0  0  0  0
   -1.8577    0.9604    0.0000 C   0  0  0  0  0  0  0  0  0  0  0  0
   -0.4212    0.5286    0.0000 C   0  0  0  0  0  0  0  0  0  0  0  0
    0.6711    1.5566    0.0000 C   0  0  0  0  0  0  0  0  0  0  0  0
    2.1075    1.1248    0.0000 N   0  0  0  0  0  0  0  0  0  0  0  0
    2.4518   -0.3352    0.0000 C   0  0  0  0  0  0  0  0  0  0  0  0
    3.8882   -0.7671    0.0000 C   0  0  0  0  0  0  0  0  0  0  0  0
    4.9805    0.2610    0.0000 N   0  0  0  0  0  0  0  0  0  0  0  0
    6.4170   -0.1709    0.0000 C   0  0  0  0  0  0  0  0  0  0  0  0
    6.7612   -1.6309    0.0000 C   0  0  0  0  0  0  0  0  0  0  0  0
    8.1977   -2.0627    0.0000 C   0  0  0  0  0  0  0  0  0  0  0  0
    9.2899   -1.0347    0.0000 C   0  0  0  0  0  0  0  0  0  0  0  0
    8.9457    0.4253    0.0000 C   0  0  0  0  0  0  0  0  0  0  0  0
    7.5092    0.8572    0.0000 C   0  0  0  0  0  0  0  0  0  0  0  0
    4.6363    1.7210    0.0000 C   0  0  0  0  0  0  0  0  0  0  0  0
    3.1998    2.1528    0.0000 C   0  0  0  0  0  0  0  0  0  0  0  0
   -2.6057   -1.5276    0.0000 C   0  0  0  0  0  0  0  0  0  0  0  0
   -3.6980   -2.5557    0.0000 C   0  0  0  0  0  0  0  0  0  0  0  0
   -5.1345   -2.1238    0.0000 C   0  0  0  0  0  0  0  0  0  0  0  0
   -5.4787   -0.6638    0.0000 C   0  0  0  0  0  0  0  0  0  0  0  0
  1  2  1  0
  2  3  1  0
  3  4  2  0
  4  5  1  0
  5  6  2  0
  6  7  1  0
  7  8  2  0
  8  9  1  0
  9 10  1  0
 10 11  1  0
 11 12  1  0
 12 13  1  0
 13 14  1  0
 14 15  1  0
 15 16  1  0
 16 17  1  0
 17 18  1  0
 18 19  1  0
 19 20  1  0
 20 21  1  0
 15 22  1  0
 22 23  1  0
  8 24  1  0
 24 25  2  0
 25 26  1  0
 26 27  2  0
 27  3  1  0
 27  7  1  0
 23 12  1  0
 21 16  1  0
M  END
>  <ChemBL_ID>  (1016) 
CHEMBL75286

>  <Compound_Key>  (1016) 
44

>  <Ki>  (1016) 
9.24

>  <database>  (1016) 
CHEMBL

>  <Assay_ChEMBL_ID>  (1016) 
CHEMBL807586

>  <Document_ChEMBL_ID>  (1016) 
CHEMBL1148440

$$$$

     RDKit          2D

 26 28  0  0  0  0  0  0  0  0999 V2000
    4.1408   -2.2233    0.0000 O   0  0  0  0  0  0  0  0  0  0  0  0
    4.4270   -0.7509    0.0000 C   0  0  0  0  0  0  0  0  0  0  0  0
    3.2949    0.2332    0.0000 C   0  0  0  0  0  0  0  0  0  0  0  0
    1.8767   -0.2552    0.0000 C   0  0  0  0  0  0  0  0  0  0  0  0
    0.7446    0.7289    0.0000 C   0  0  0  0  0  0  0  0  0  0  0  0
   -0.6737    0.2406    0.0000 N   0  0  0  0  0  0  0  0  0  0  0  0
   -0.8490   -1.2491    0.0000 C   0  0  0  0  0  0  0  0  0  0  0  0
   -2.1231   -2.0409    0.0000 C   0  0  0  0  0  0  0  0  0  0  0  0
   -3.5364   -1.5384    0.0000 C   0  0  0  0  0  0  0  0  0  0  0  0
   -4.0248   -0.1201    0.0000 N   0  0  0  0  0  0  0  0  0  0  0  0
   -5.5145    0.0553    0.0000 C   0  0  0  0  0  0  0  0  0  0  0  0
   -6.1075    1.4331    0.0000 C   0  0  0  0  0  0  0  0  0  0  0  0
   -7.5972    1.6084    0.0000 C   0  0  0  0  0  0  0  0  0  0  0  0
   -8.4939    0.4060    0.0000 C   0  0  0  0  0  0  0  0  0  0  0  0
   -9.9836    0.5814    0.0000 Cl  0  0  0  0  0  0  0  0  0  0  0  0
   -7.9010   -0.9718    0.0000 C   0  0  0  0  0  0  0  0  0  0  0  0
   -6.4112   -1.1472    0.0000 C   0  0  0  0  0  0  0  0  0  0  0  0
   -3.2204    1.1460    0.0000 C   0  0  0  0  0  0  0  0  0  0  0  0
   -1.7290    1.3065    0.0000 C   0  0  0  0  0  0  0  0  0  0  0  0
    5.8453   -0.2625    0.0000 C   0  0  0  0  0  0  0  0  0  0  0  0
    6.9774   -1.2466    0.0000 C   0  0  0  0  0  0  0  0  0  0  0  0
    8.3956   -0.7582    0.0000 C   0  0  0  0  0  0  0  0  0  0  0  0
    8.6818    0.7142    0.0000 C   0  0  0  0  0  0  0  0  0  0  0  0
   10.1001    1.2026    0.0000 F   0  0  0  0  0  0  0  0  0  0  0  0
    7.5498    1.6983    0.0000 C   0  0  0  0  0  0  0  0  0  0  0  0
    6.1315    1.2099    0.0000 C   0  0  0  0  0  0  0  0  0  0  0  0
  1  2  2  0
  2  3  1  0
  3  4  1  0
  4  5  1  0
  5  6  1  0
  6  7  1  0
  7  8  1  0
  8  9  1  0
  9 10  1  0
 10 11  1  0
 11 12  2  0
 12 13  1  0
 13 14  2  0
 14 15  1  0
 14 16  1  0
 16 17  2  0
 10 18  1  0
 18 19  1  0
  2 20  1  0
 20 21  2  0
 21 22  1  0
 22 23  2  0
 23 24  1  0
 23 25  1  0
 25 26  2  0
 19  6  1  0
 26 20  1  0
 17 11  1  0
M  END
>  <Compound_Key>  (1017) 
SYA013

>  <Ki>  (1017) 
5.6

>  <database>  (1017) 
NewLiterature

>  <Document_ChEMBL_ID>  (1017) 
10.1016/j.bmc.2022.117032

$$$$

     RDKit          2D

 27 30  0  0  0  0  0  0  0  0999 V2000
    4.3264   -2.9447    0.0000 O   0  0  0  0  0  0  0  0  0  0  0  0
    4.4328   -1.4485    0.0000 C   0  0  0  0  0  0  0  0  0  0  0  0
    5.7058   -0.6551    0.0000 C   0  0  0  0  0  0  0  0  0  0  0  0
    7.1472   -1.0703    0.0000 C   0  0  0  0  0  0  0  0  0  0  0  0
    8.2275   -0.0296    0.0000 C   0  0  0  0  0  0  0  0  0  0  0  0
    7.8664    1.4263    0.0000 C   0  0  0  0  0  0  0  0  0  0  0  0
    8.9466    2.4670    0.0000 F   0  0  0  0  0  0  0  0  0  0  0  0
    6.4250    1.8415    0.0000 C   0  0  0  0  0  0  0  0  0  0  0  0
    5.3447    0.8008    0.0000 C   0  0  0  0  0  0  0  0  0  0  0  0
    3.8485    0.9072    0.0000 C   0  0  0  0  0  0  0  0  0  0  0  0
    3.2849   -0.4829    0.0000 C   0  0  0  0  0  0  0  0  0  0  0  0
    1.8290   -0.8441    0.0000 C   0  0  0  0  0  0  0  0  0  0  0  0
    0.7883    0.2362    0.0000 C   0  0  0  0  0  0  0  0  0  0  0  0
   -0.6675   -0.1249    0.0000 N   0  0  0  0  0  0  0  0  0  0  0  0
   -0.9738   -1.5933    0.0000 C   0  0  0  0  0  0  0  0  0  0  0  0
   -2.3129   -2.2694    0.0000 C   0  0  0  0  0  0  0  0  0  0  0  0
   -3.6763   -1.6440    0.0000 C   0  0  0  0  0  0  0  0  0  0  0  0
   -4.0374   -0.1881    0.0000 N   0  0  0  0  0  0  0  0  0  0  0  0
   -5.5058    0.1182    0.0000 C   0  0  0  0  0  0  0  0  0  0  0  0
   -5.9747    1.5430    0.0000 C   0  0  0  0  0  0  0  0  0  0  0  0
   -7.4431    1.8493    0.0000 C   0  0  0  0  0  0  0  0  0  0  0  0
   -8.4426    0.7308    0.0000 C   0  0  0  0  0  0  0  0  0  0  0  0
   -9.9110    1.0371    0.0000 Cl  0  0  0  0  0  0  0  0  0  0  0  0
   -7.9737   -0.6940    0.0000 C   0  0  0  0  0  0  0  0  0  0  0  0
   -6.5053   -1.0003    0.0000 C   0  0  0  0  0  0  0  0  0  0  0  0
   -3.1243    1.0019    0.0000 C   0  0  0  0  0  0  0  0  0  0  0  0
   -1.6246    1.0301    0.0000 C   0  0  0  0  0  0  0  0  0  0  0  0
  1  2  2  0
  2  3  1  0
  3  4  2  0
  4  5  1  0
  5  6  2  0
  6  7  1  0
  6  8  1  0
  8  9  2  0
  9 10  1  0
 10 11  1  0
 11 12  1  0
 12 13  1  0
 13 14  1  0
 14 15  1  0
 15 16  1  0
 16 17  1  0
 17 18  1  0
 18 19  1  0
 19 20  2  0
 20 21  1  0
 21 22  2  0
 22 23  1  0
 22 24  1  0
 24 25  2  0
 18 26  1  0
 26 27  1  0
 11  2  1  0
 27 14  1  0
  9  3  1  0
 25 19  1  0
M  END
>  <Compound_Key>  (1018) 
SYA013-D-1

>  <Ki>  (1018) 
0.6

>  <database>  (1018) 
NewLiterature

>  <Document_ChEMBL_ID>  (1018) 
10.1016/j.bmc.2022.117033

$$$$

     RDKit          2D

 27 30  0  0  0  0  0  0  0  0999 V2000
    4.3264   -2.9447    0.0000 O   0  0  0  0  0  0  0  0  0  0  0  0
    4.4328   -1.4485    0.0000 C   0  0  0  0  0  0  0  0  0  0  0  0
    5.7058   -0.6551    0.0000 C   0  0  0  0  0  0  0  0  0  0  0  0
    7.1472   -1.0703    0.0000 C   0  0  0  0  0  0  0  0  0  0  0  0
    8.2275   -0.0296    0.0000 C   0  0  0  0  0  0  0  0  0  0  0  0
    7.8664    1.4263    0.0000 C   0  0  0  0  0  0  0  0  0  0  0  0
    8.9466    2.4670    0.0000 F   0  0  0  0  0  0  0  0  0  0  0  0
    6.4250    1.8415    0.0000 C   0  0  0  0  0  0  0  0  0  0  0  0
    5.3447    0.8008    0.0000 C   0  0  0  0  0  0  0  0  0  0  0  0
    3.8485    0.9072    0.0000 C   0  0  0  0  0  0  0  0  0  0  0  0
    3.2849   -0.4829    0.0000 C   0  0  0  0  0  0  0  0  0  0  0  0
    1.8290   -0.8441    0.0000 C   0  0  0  0  0  0  0  0  0  0  0  0
    0.7883    0.2362    0.0000 C   0  0  0  0  0  0  0  0  0  0  0  0
   -0.6675   -0.1249    0.0000 N   0  0  0  0  0  0  0  0  0  0  0  0
   -0.9738   -1.5933    0.0000 C   0  0  0  0  0  0  0  0  0  0  0  0
   -2.3129   -2.2694    0.0000 C   0  0  0  0  0  0  0  0  0  0  0  0
   -3.6763   -1.6440    0.0000 C   0  0  0  0  0  0  0  0  0  0  0  0
   -4.0374   -0.1881    0.0000 N   0  0  0  0  0  0  0  0  0  0  0  0
   -5.5058    0.1182    0.0000 C   0  0  0  0  0  0  0  0  0  0  0  0
   -5.9747    1.5430    0.0000 C   0  0  0  0  0  0  0  0  0  0  0  0
   -7.4431    1.8493    0.0000 C   0  0  0  0  0  0  0  0  0  0  0  0
   -8.4426    0.7308    0.0000 C   0  0  0  0  0  0  0  0  0  0  0  0
   -9.9110    1.0371    0.0000 Cl  0  0  0  0  0  0  0  0  0  0  0  0
   -7.9737   -0.6940    0.0000 C   0  0  0  0  0  0  0  0  0  0  0  0
   -6.5053   -1.0003    0.0000 N   0  0  0  0  0  0  0  0  0  0  0  0
   -3.1243    1.0019    0.0000 C   0  0  0  0  0  0  0  0  0  0  0  0
   -1.6246    1.0301    0.0000 C   0  0  0  0  0  0  0  0  0  0  0  0
  1  2  2  0
  2  3  1  0
  3  4  2  0
  4  5  1  0
  5  6  2  0
  6  7  1  0
  6  8  1  0
  8  9  2  0
  9 10  1  0
 10 11  1  0
 11 12  1  0
 12 13  1  0
 13 14  1  0
 14 15  1  0
 15 16  1  0
 16 17  1  0
 17 18  1  0
 18 19  1  0
 19 20  2  0
 20 21  1  0
 21 22  2  0
 22 23  1  0
 22 24  1  0
 24 25  2  0
 18 26  1  0
 26 27  1  0
 11  2  1  0
 27 14  1  0
  9  3  1  0
 25 19  1  0
M  END
>  <Compound_Key>  (1019) 
SYA013-D-2

>  <Ki>  (1019) 
0.7

>  <database>  (1019) 
NewLiterature

>  <Document_ChEMBL_ID>  (1019) 
10.1016/j.bmc.2022.117034

$$$$

     RDKit          2D

 27 29  0  0  0  0  0  0  0  0999 V2000
    6.1284    3.8034    0.0000 O   0  0  0  0  0  0  0  0  0  0  0  0
    6.1967    2.3050    0.0000 N   0  0  0  0  0  0  0  0  0  0  0  0
    4.9332    1.4966    0.0000 C   0  0  0  0  0  0  0  0  0  0  0  0
    3.6014    2.1866    0.0000 C   0  0  0  0  0  0  0  0  0  0  0  0
    2.3378    1.3782    0.0000 C   0  0  0  0  0  0  0  0  0  0  0  0
    1.0060    2.0683    0.0000 C   0  0  0  0  0  0  0  0  0  0  0  0
   -0.2575    1.2599    0.0000 N   0  0  0  0  0  0  0  0  0  0  0  0
   -0.0774   -0.2293    0.0000 C   0  0  0  0  0  0  0  0  0  0  0  0
   -1.1294   -1.2986    0.0000 C   0  0  0  0  0  0  0  0  0  0  0  0
   -2.6213   -1.1428    0.0000 C   0  0  0  0  0  0  0  0  0  0  0  0
   -3.4297    0.1207    0.0000 N   0  0  0  0  0  0  0  0  0  0  0  0
   -4.9188   -0.0594    0.0000 C   0  0  0  0  0  0  0  0  0  0  0  0
   -5.8194    1.1402    0.0000 C   0  0  0  0  0  0  0  0  0  0  0  0
   -7.3085    0.9601    0.0000 C   0  0  0  0  0  0  0  0  0  0  0  0
   -7.8971   -0.4196    0.0000 C   0  0  0  0  0  0  0  0  0  0  0  0
   -9.3863   -0.5998    0.0000 Cl  0  0  0  0  0  0  0  0  0  0  0  0
   -6.9966   -1.6192    0.0000 C   0  0  0  0  0  0  0  0  0  0  0  0
   -5.5074   -1.4391    0.0000 C   0  0  0  0  0  0  0  0  0  0  0  0
   -2.9458    1.5405    0.0000 C   0  0  0  0  0  0  0  0  0  0  0  0
   -1.5341    2.0475    0.0000 C   0  0  0  0  0  0  0  0  0  0  0  0
    5.0015   -0.0019    0.0000 C   0  0  0  0  0  0  0  0  0  0  0  0
    3.7380   -0.8103    0.0000 C   0  0  0  0  0  0  0  0  0  0  0  0
    3.8064   -2.3087    0.0000 C   0  0  0  0  0  0  0  0  0  0  0  0
    5.1382   -2.9988    0.0000 C   0  0  0  0  0  0  0  0  0  0  0  0
    5.2065   -4.4972    0.0000 F   0  0  0  0  0  0  0  0  0  0  0  0
    6.4017   -2.1904    0.0000 C   0  0  0  0  0  0  0  0  0  0  0  0
    6.3334   -0.6919    0.0000 C   0  0  0  0  0  0  0  0  0  0  0  0
  1  2  1  0
  2  3  2  0
  3  4  1  0
  4  5  1  0
  5  6  1  0
  6  7  1  0
  7  8  1  0
  8  9  1  0
  9 10  1  0
 10 11  1  0
 11 12  1  0
 12 13  2  0
 13 14  1  0
 14 15  2  0
 15 16  1  0
 15 17  1  0
 17 18  2  0
 11 19  1  0
 19 20  1  0
  3 21  1  0
 21 22  2  0
 22 23  1  0
 23 24  2  0
 24 25  1  0
 24 26  1  0
 26 27  2  0
 20  7  1  0
 27 21  1  0
 18 12  1  0
M  END
>  <Compound_Key>  (1020) 
SYA013-D-3

>  <Ki>  (1020) 
3.5

>  <database>  (1020) 
NewLiterature

>  <Document_ChEMBL_ID>  (1020) 
10.1016/j.bmc.2022.117035

$$$$

     RDKit          2D

 28 31  0  0  0  0  0  0  0  0999 V2000
    2.9143   -3.4358    0.0000 O   0  0  0  0  0  0  0  0  0  0  0  0
    4.2550   -2.7630    0.0000 N   0  0  0  0  0  0  0  0  0  0  0  0
    4.3427   -1.2656    0.0000 C   0  0  0  0  0  0  0  0  0  0  0  0
    5.6057   -0.4563    0.0000 C   0  0  0  0  0  0  0  0  0  0  0  0
    7.0521   -0.8534    0.0000 C   0  0  0  0  0  0  0  0  0  0  0  0
    8.1193    0.2007    0.0000 C   0  0  0  0  0  0  0  0  0  0  0  0
    7.7399    1.6520    0.0000 C   0  0  0  0  0  0  0  0  0  0  0  0
    8.8071    2.7061    0.0000 F   0  0  0  0  0  0  0  0  0  0  0  0
    6.2934    2.0490    0.0000 C   0  0  0  0  0  0  0  0  0  0  0  0
    5.2263    0.9949    0.0000 C   0  0  0  0  0  0  0  0  0  0  0  0
    3.7289    1.0826    0.0000 C   0  0  0  0  0  0  0  0  0  0  0  0
    3.1828   -0.3145    0.0000 C   0  0  0  0  0  0  0  0  0  0  0  0
    1.7315   -0.6938    0.0000 C   0  0  0  0  0  0  0  0  0  0  0  0
    0.6774    0.3733    0.0000 C   0  0  0  0  0  0  0  0  0  0  0  0
   -0.7739   -0.0060    0.0000 N   0  0  0  0  0  0  0  0  0  0  0  0
   -1.0618   -1.4782    0.0000 C   0  0  0  0  0  0  0  0  0  0  0  0
   -2.3922   -2.1709    0.0000 C   0  0  0  0  0  0  0  0  0  0  0  0
   -3.7633   -1.5627    0.0000 C   0  0  0  0  0  0  0  0  0  0  0  0
   -4.1427   -0.1114    0.0000 N   0  0  0  0  0  0  0  0  0  0  0  0
   -5.6148    0.1765    0.0000 C   0  0  0  0  0  0  0  0  0  0  0  0
   -6.1015    1.5953    0.0000 C   0  0  0  0  0  0  0  0  0  0  0  0
   -7.5737    1.8832    0.0000 C   0  0  0  0  0  0  0  0  0  0  0  0
   -8.5590    0.7522    0.0000 C   0  0  0  0  0  0  0  0  0  0  0  0
  -10.0311    1.0401    0.0000 Cl  0  0  0  0  0  0  0  0  0  0  0  0
   -8.0723   -0.6666    0.0000 C   0  0  0  0  0  0  0  0  0  0  0  0
   -6.6002   -0.9545    0.0000 C   0  0  0  0  0  0  0  0  0  0  0  0
   -3.2446    1.0900    0.0000 C   0  0  0  0  0  0  0  0  0  0  0  0
   -1.7453    1.1369    0.0000 C   0  0  0  0  0  0  0  0  0  0  0  0
  1  2  1  0
  2  3  2  0
  3  4  1  0
  4  5  2  0
  5  6  1  0
  6  7  2  0
  7  8  1  0
  7  9  1  0
  9 10  2  0
 10 11  1  0
 11 12  1  0
 12 13  1  0
 13 14  1  0
 14 15  1  0
 15 16  1  0
 16 17  1  0
 17 18  1  0
 18 19  1  0
 19 20  1  0
 20 21  2  0
 21 22  1  0
 22 23  2  0
 23 24  1  0
 23 25  1  0
 25 26  2  0
 19 27  1  0
 27 28  1  0
 12  3  1  0
 28 15  1  0
 10  4  1  0
 26 20  1  0
M  END
>  <Compound_Key>  (1021) 
SYA013-D-4

>  <Ki>  (1021) 
407.0

>  <database>  (1021) 
NewLiterature

>  <Document_ChEMBL_ID>  (1021) 
10.1016/j.bmc.2022.117036

$$$$

     RDKit          2D

 27 30  0  0  0  0  0  0  0  0999 V2000
   -1.6524   -6.6161    0.0000 O   0  0  0  0  0  0  0  0  0  0  0  0
   -1.9163   -5.1395    0.0000 C   0  0  0  0  0  0  0  0  0  0  0  0
   -0.7694   -4.1727    0.0000 C   0  0  0  0  0  0  0  0  0  0  0  0
   -1.0333   -2.6961    0.0000 C   0  0  0  0  0  0  0  0  0  0  0  0
   -2.4440   -2.1863    0.0000 C   0  0  0  0  0  0  0  0  0  0  0  0
   -2.7079   -0.7097    0.0000 N   0  0  0  0  0  0  0  0  0  0  0  0
   -4.1186   -0.1999    0.0000 C   0  0  0  0  0  0  0  0  0  0  0  0
   -4.3825    1.2767    0.0000 C   0  0  0  0  0  0  0  0  0  0  0  0
   -3.2357    2.2435    0.0000 C   0  0  0  0  0  0  0  0  0  0  0  0
   -3.4996    3.7201    0.0000 C   0  0  0  0  0  0  0  0  0  0  0  0
   -4.9103    4.2299    0.0000 C   0  0  0  0  0  0  0  0  0  0  0  0
   -6.0571    3.2631    0.0000 C   0  0  0  0  0  0  0  0  0  0  0  0
   -5.7932    1.7865    0.0000 C   0  0  0  0  0  0  0  0  0  0  0  0
   -1.5611    0.2572    0.0000 C   0  0  0  0  0  0  0  0  0  0  0  0
   -0.1504   -0.2526    0.0000 C   0  0  0  0  0  0  0  0  0  0  0  0
    0.1135   -1.7292    0.0000 N   0  0  0  0  0  0  0  0  0  0  0  0
    1.5243   -2.2390    0.0000 C   0  0  0  0  0  0  0  0  0  0  0  0
    2.6711   -1.2722    0.0000 C   0  0  0  0  0  0  0  0  0  0  0  0
    4.0818   -1.7819    0.0000 C   0  0  0  0  0  0  0  0  0  0  0  0
    5.2286   -0.8151    0.0000 C   0  0  0  0  0  0  0  0  0  0  0  0
    4.9648    0.6615    0.0000 C   0  0  0  0  0  0  0  0  0  0  0  0
    6.1116    1.6283    0.0000 C   0  0  0  0  0  0  0  0  0  0  0  0
    5.8477    3.1049    0.0000 C   0  0  0  0  0  0  0  0  0  0  0  0
    4.4370    3.6147    0.0000 C   0  0  0  0  0  0  0  0  0  0  0  0
    3.2902    2.6479    0.0000 C   0  0  0  0  0  0  0  0  0  0  0  0
    3.5540    1.1713    0.0000 C   0  0  0  0  0  0  0  0  0  0  0  0
    2.4072    0.2044    0.0000 C   0  0  0  0  0  0  0  0  0  0  0  0
  1  2  1  0
  2  3  1  0
  4  3  1  1
  4  5  1  0
  5  6  1  0
  6  7  1  0
  7  8  1  0
  8  9  1  0
  9 10  1  0
 10 11  1  0
 11 12  1  0
 12 13  1  0
  6 14  1  0
 14 15  1  0
 15 16  1  0
 16 17  1  0
 17 18  1  0
 18 19  2  0
 19 20  1  0
 20 21  2  0
 21 22  1  0
 22 23  2  0
 23 24  1  0
 24 25  2  0
 25 26  1  0
 26 27  2  0
 16  4  1  0
 27 18  1  0
 13  8  1  0
 26 21  1  0
M  END
>  <Compound_Key>  (1022) 
SYA013-D-5

>  <Ki>  (1022) 
31.0

>  <database>  (1022) 
NewLiterature

>  <Document_ChEMBL_ID>  (1022) 
10.1016/j.bmc.2022.117037

$$$$

     RDKit          2D

 27 30  0  0  0  0  0  0  0  0999 V2000
    2.0859   -4.1303    0.0000 O   0  0  0  0  0  0  0  0  0  0  0  0
    0.8824   -3.2350    0.0000 C   0  0  0  0  0  0  0  0  0  0  0  0
    1.0560   -1.7451    0.0000 C   0  0  0  0  0  0  0  0  0  0  0  0
   -0.1475   -0.8498    0.0000 C   0  0  0  0  0  0  0  0  0  0  0  0
   -1.5246   -1.4443    0.0000 C   0  0  0  0  0  0  0  0  0  0  0  0
   -2.7281   -0.5490    0.0000 N   0  0  0  0  0  0  0  0  0  0  0  0
   -4.1052   -1.1436    0.0000 C   0  0  0  0  0  0  0  0  0  0  0  0
   -5.3087   -0.2483    0.0000 C   0  0  0  0  0  0  0  0  0  0  0  0
   -5.1351    1.2417    0.0000 C   0  0  0  0  0  0  0  0  0  0  0  0
   -6.3385    2.1370    0.0000 C   0  0  0  0  0  0  0  0  0  0  0  0
   -7.7157    1.5424    0.0000 C   0  0  0  0  0  0  0  0  0  0  0  0
   -7.8893    0.0525    0.0000 C   0  0  0  0  0  0  0  0  0  0  0  0
   -6.6858   -0.8428    0.0000 C   0  0  0  0  0  0  0  0  0  0  0  0
   -2.5544    0.9409    0.0000 C   0  0  0  0  0  0  0  0  0  0  0  0
   -1.1773    1.5355    0.0000 C   0  0  0  0  0  0  0  0  0  0  0  0
    0.0262    0.6402    0.0000 N   0  0  0  0  0  0  0  0  0  0  0  0
    1.4033    1.2347    0.0000 C   0  0  0  0  0  0  0  0  0  0  0  0
    2.6068    0.3394    0.0000 C   0  0  0  0  0  0  0  0  0  0  0  0
    2.4331   -1.1505    0.0000 C   0  0  0  0  0  0  0  0  0  0  0  0
    3.6366   -2.0458    0.0000 C   0  0  0  0  0  0  0  0  0  0  0  0
    5.0138   -1.4512    0.0000 C   0  0  0  0  0  0  0  0  0  0  0  0
    5.1874    0.0387    0.0000 C   0  0  0  0  0  0  0  0  0  0  0  0
    6.5645    0.6333    0.0000 C   0  0  0  0  0  0  0  0  0  0  0  0
    6.7381    2.1232    0.0000 C   0  0  0  0  0  0  0  0  0  0  0  0
    5.5347    3.0185    0.0000 C   0  0  0  0  0  0  0  0  0  0  0  0
    4.1575    2.4239    0.0000 C   0  0  0  0  0  0  0  0  0  0  0  0
    3.9839    0.9340    0.0000 C   0  0  0  0  0  0  0  0  0  0  0  0
  1  2  1  0
  2  3  1  0
  4  3  1  1
  4  5  1  0
  5  6  1  0
  6  7  1  0
  7  8  1  0
  8  9  1  0
  9 10  1  0
 10 11  1  0
 11 12  1  0
 12 13  1  0
  6 14  1  0
 14 15  1  0
 15 16  1  0
 16 17  1  0
 17 18  1  0
 18 19  2  0
 19 20  1  0
 20 21  2  0
 21 22  1  0
 22 23  2  0
 23 24  1  0
 24 25  2  0
 25 26  1  0
 26 27  2  0
 16  4  1  0
 27 18  1  0
 13  8  1  0
 27 22  1  0
M  END
>  <Compound_Key>  (1023) 
SYA013-D-6

>  <Ki>  (1023) 
16.0

>  <database>  (1023) 
NewLiterature

>  <Document_ChEMBL_ID>  (1023) 
10.1016/j.bmc.2022.117038

$$$$

     RDKit          2D

 27 30  0  0  0  0  0  0  0  0999 V2000
    2.0859   -4.1303    0.0000 O   0  0  0  0  0  0  0  0  0  0  0  0
    0.8824   -3.2350    0.0000 C   0  0  0  0  0  0  0  0  0  0  0  0
    1.0560   -1.7451    0.0000 C   0  0  0  0  0  0  0  0  0  0  0  0
   -0.1475   -0.8498    0.0000 C   0  0  0  0  0  0  0  0  0  0  0  0
   -1.5246   -1.4443    0.0000 C   0  0  0  0  0  0  0  0  0  0  0  0
   -2.7281   -0.5490    0.0000 N   0  0  0  0  0  0  0  0  0  0  0  0
   -4.1052   -1.1436    0.0000 C   0  0  0  0  0  0  0  0  0  0  0  0
   -5.3087   -0.2483    0.0000 C   0  0  0  0  0  0  0  0  0  0  0  0
   -5.1351    1.2417    0.0000 C   0  0  0  0  0  0  0  0  0  0  0  0
   -6.3385    2.1370    0.0000 C   0  0  0  0  0  0  0  0  0  0  0  0
   -7.7157    1.5424    0.0000 C   0  0  0  0  0  0  0  0  0  0  0  0
   -7.8893    0.0525    0.0000 C   0  0  0  0  0  0  0  0  0  0  0  0
   -6.6858   -0.8428    0.0000 C   0  0  0  0  0  0  0  0  0  0  0  0
   -2.5544    0.9409    0.0000 C   0  0  0  0  0  0  0  0  0  0  0  0
   -1.1773    1.5355    0.0000 C   0  0  0  0  0  0  0  0  0  0  0  0
    0.0262    0.6402    0.0000 N   0  0  0  0  0  0  0  0  0  0  0  0
    1.4033    1.2347    0.0000 C   0  0  0  0  0  0  0  0  0  0  0  0
    2.6068    0.3394    0.0000 C   0  0  0  0  0  0  0  0  0  0  0  0
    2.4331   -1.1505    0.0000 C   0  0  0  0  0  0  0  0  0  0  0  0
    3.6366   -2.0458    0.0000 C   0  0  0  0  0  0  0  0  0  0  0  0
    5.0138   -1.4512    0.0000 C   0  0  0  0  0  0  0  0  0  0  0  0
    5.1874    0.0387    0.0000 C   0  0  0  0  0  0  0  0  0  0  0  0
    6.5645    0.6333    0.0000 C   0  0  0  0  0  0  0  0  0  0  0  0
    6.7381    2.1232    0.0000 C   0  0  0  0  0  0  0  0  0  0  0  0
    5.5347    3.0185    0.0000 C   0  0  0  0  0  0  0  0  0  0  0  0
    4.1575    2.4239    0.0000 C   0  0  0  0  0  0  0  0  0  0  0  0
    3.9839    0.9340    0.0000 C   0  0  0  0  0  0  0  0  0  0  0  0
  1  2  1  0
  2  3  1  0
  4  3  1  6
  4  5  1  0
  5  6  1  0
  6  7  1  0
  7  8  1  0
  8  9  1  0
  9 10  1  0
 10 11  1  0
 11 12  1  0
 12 13  1  0
  6 14  1  0
 14 15  1  0
 15 16  1  0
 16 17  1  0
 17 18  1  0
 18 19  2  0
 19 20  1  0
 20 21  2  0
 21 22  1  0
 22 23  2  0
 23 24  1  0
 24 25  2  0
 25 26  1  0
 26 27  2  0
 16  4  1  0
 27 18  1  0
 13  8  1  0
 27 22  1  0
M  END
>  <Compound_Key>  (1024) 
SYA013-D-ent-6

>  <Ki>  (1024) 
37.0

>  <database>  (1024) 
NewLiterature

>  <Document_ChEMBL_ID>  (1024) 
10.1016/j.bmc.2022.117039

$$$$

     RDKit          2D

 29 32  0  0  0  0  0  0  0  0999 V2000
   -3.4649   -6.3251    0.0000 O   0  0  0  0  0  0  0  0  0  0  0  0
   -3.5040   -4.8256    0.0000 C   0  0  0  0  0  0  0  0  0  0  0  0
   -2.2249   -4.0420    0.0000 C   0  0  0  0  0  0  0  0  0  0  0  0
   -2.2639   -2.5425    0.0000 C   0  0  0  0  0  0  0  0  0  0  0  0
   -3.5820   -1.8266    0.0000 C   0  0  0  0  0  0  0  0  0  0  0  0
   -3.6211   -0.3271    0.0000 N   0  0  0  0  0  0  0  0  0  0  0  0
   -4.9392    0.3888    0.0000 C   0  0  0  0  0  0  0  0  0  0  0  0
   -4.9782    1.8883    0.0000 C   0  0  0  0  0  0  0  0  0  0  0  0
   -3.6991    2.6719    0.0000 C   0  0  0  0  0  0  0  0  0  0  0  0
   -3.7382    4.1714    0.0000 C   0  0  0  0  0  0  0  0  0  0  0  0
   -5.0563    4.8873    0.0000 C   0  0  0  0  0  0  0  0  0  0  0  0
   -6.3354    4.1038    0.0000 C   0  0  0  0  0  0  0  0  0  0  0  0
   -6.2963    2.6043    0.0000 C   0  0  0  0  0  0  0  0  0  0  0  0
   -2.3420    0.4564    0.0000 C   0  0  0  0  0  0  0  0  0  0  0  0
   -1.0239   -0.2595    0.0000 C   0  0  0  0  0  0  0  0  0  0  0  0
   -0.9848   -1.7590    0.0000 N   0  0  0  0  0  0  0  0  0  0  0  0
    0.3333   -2.4749    0.0000 C   0  0  0  0  0  0  0  0  0  0  0  0
    1.6124   -1.6914    0.0000 C   0  0  0  0  0  0  0  0  0  0  0  0
    2.9305   -2.4073    0.0000 C   0  0  0  0  0  0  0  0  0  0  0  0
    4.2096   -1.6238    0.0000 C   0  0  0  0  0  0  0  0  0  0  0  0
    4.1705   -0.1243    0.0000 C   0  0  0  0  0  0  0  0  0  0  0  0
    5.4496    0.6593    0.0000 C   0  0  0  0  0  0  0  0  0  0  0  0
    6.7677   -0.0567    0.0000 C   0  0  0  0  0  0  0  0  0  0  0  0
    8.0468    0.7269    0.0000 C   0  0  0  0  0  0  0  0  0  0  0  0
    8.0078    2.2264    0.0000 C   0  0  0  0  0  0  0  0  0  0  0  0
    6.6897    2.9423    0.0000 C   0  0  0  0  0  0  0  0  0  0  0  0
    5.4106    2.1588    0.0000 C   0  0  0  0  0  0  0  0  0  0  0  0
    2.8524    0.5917    0.0000 C   0  0  0  0  0  0  0  0  0  0  0  0
    1.5733   -0.1919    0.0000 C   0  0  0  0  0  0  0  0  0  0  0  0
  1  2  1  0
  2  3  1  0
  4  3  1  1
  4  5  1  0
  5  6  1  0
  6  7  1  0
  7  8  1  0
  8  9  1  0
  9 10  1  0
 10 11  1  0
 11 12  1  0
 12 13  1  0
  6 14  1  0
 14 15  1  0
 15 16  1  0
 16 17  1  0
 17 18  1  0
 18 19  2  0
 19 20  1  0
 20 21  2  0
 21 22  1  0
 22 23  2  0
 23 24  1  0
 24 25  2  0
 25 26  1  0
 26 27  2  0
 21 28  1  0
 28 29  2  0
 16  4  1  0
 29 18  1  0
 13  8  1  0
 27 22  1  0
M  END
>  <Compound_Key>  (1025) 
SYA013-D-7

>  <Ki>  (1025) 
43.0

>  <database>  (1025) 
NewLiterature

>  <Document_ChEMBL_ID>  (1025) 
10.1016/j.bmc.2022.117040

$$$$

     RDKit          2D

 29 32  0  0  0  0  0  0  0  0999 V2000
   -3.4649   -6.3251    0.0000 O   0  0  0  0  0  0  0  0  0  0  0  0
   -3.5040   -4.8256    0.0000 C   0  0  0  0  0  0  0  0  0  0  0  0
   -2.2249   -4.0420    0.0000 C   0  0  0  0  0  0  0  0  0  0  0  0
   -2.2639   -2.5425    0.0000 C   0  0  0  0  0  0  0  0  0  0  0  0
   -3.5820   -1.8266    0.0000 C   0  0  0  0  0  0  0  0  0  0  0  0
   -3.6211   -0.3271    0.0000 N   0  0  0  0  0  0  0  0  0  0  0  0
   -4.9392    0.3888    0.0000 C   0  0  0  0  0  0  0  0  0  0  0  0
   -4.9782    1.8883    0.0000 C   0  0  0  0  0  0  0  0  0  0  0  0
   -3.6991    2.6719    0.0000 C   0  0  0  0  0  0  0  0  0  0  0  0
   -3.7382    4.1714    0.0000 C   0  0  0  0  0  0  0  0  0  0  0  0
   -5.0563    4.8873    0.0000 C   0  0  0  0  0  0  0  0  0  0  0  0
   -6.3354    4.1038    0.0000 C   0  0  0  0  0  0  0  0  0  0  0  0
   -6.2963    2.6043    0.0000 C   0  0  0  0  0  0  0  0  0  0  0  0
   -2.3420    0.4564    0.0000 C   0  0  0  0  0  0  0  0  0  0  0  0
   -1.0239   -0.2595    0.0000 C   0  0  0  0  0  0  0  0  0  0  0  0
   -0.9848   -1.7590    0.0000 N   0  0  0  0  0  0  0  0  0  0  0  0
    0.3333   -2.4749    0.0000 C   0  0  0  0  0  0  0  0  0  0  0  0
    1.6124   -1.6914    0.0000 C   0  0  0  0  0  0  0  0  0  0  0  0
    2.9305   -2.4073    0.0000 C   0  0  0  0  0  0  0  0  0  0  0  0
    4.2096   -1.6238    0.0000 C   0  0  0  0  0  0  0  0  0  0  0  0
    4.1705   -0.1243    0.0000 C   0  0  0  0  0  0  0  0  0  0  0  0
    5.4496    0.6593    0.0000 C   0  0  0  0  0  0  0  0  0  0  0  0
    6.7677   -0.0567    0.0000 C   0  0  0  0  0  0  0  0  0  0  0  0
    8.0468    0.7269    0.0000 C   0  0  0  0  0  0  0  0  0  0  0  0
    8.0078    2.2264    0.0000 C   0  0  0  0  0  0  0  0  0  0  0  0
    6.6897    2.9423    0.0000 C   0  0  0  0  0  0  0  0  0  0  0  0
    5.4106    2.1588    0.0000 C   0  0  0  0  0  0  0  0  0  0  0  0
    2.8524    0.5917    0.0000 C   0  0  0  0  0  0  0  0  0  0  0  0
    1.5733   -0.1919    0.0000 C   0  0  0  0  0  0  0  0  0  0  0  0
  1  2  1  0
  2  3  1  0
  4  3  1  6
  4  5  1  0
  5  6  1  0
  6  7  1  0
  7  8  1  0
  8  9  1  0
  9 10  1  0
 10 11  1  0
 11 12  1  0
 12 13  1  0
  6 14  1  0
 14 15  1  0
 15 16  1  0
 16 17  1  0
 17 18  1  0
 18 19  2  0
 19 20  1  0
 20 21  2  0
 21 22  1  0
 22 23  2  0
 23 24  1  0
 24 25  2  0
 25 26  1  0
 26 27  2  0
 21 28  1  0
 28 29  2  0
 16  4  1  0
 29 18  1  0
 13  8  1  0
 27 22  1  0
M  END
>  <Compound_Key>  (1026) 
SYA013-D-ent-7

>  <Ki>  (1026) 
39.0

>  <database>  (1026) 
NewLiterature

>  <Document_ChEMBL_ID>  (1026) 
10.1016/j.bmc.2022.117041

$$$$

     RDKit          2D

 28 31  0  0  0  0  0  0  0  0999 V2000
   -5.1964   -3.8971    0.0000 C   0  0  0  0  0  0  0  0  0  0  0  0
   -4.4464   -2.5981    0.0000 O   0  0  0  0  0  0  0  0  0  0  0  0
   -5.1964   -1.2990    0.0000 C   0  0  0  0  0  0  0  0  0  0  0  0
   -6.6964   -1.2990    0.0000 C   0  0  0  0  0  0  0  0  0  0  0  0
   -7.4464    0.0000    0.0000 C   0  0  0  0  0  0  0  0  0  0  0  0
   -6.6964    1.2990    0.0000 C   0  0  0  0  0  0  0  0  0  0  0  0
   -5.1964    1.2990    0.0000 C   0  0  0  0  0  0  0  0  0  0  0  0
   -4.4464    2.5981    0.0000 O   0  0  0  0  0  0  0  0  0  0  0  0
   -5.1964    3.8971    0.0000 C   0  0  0  0  0  0  0  0  0  0  0  0
   -4.4464    0.0000    0.0000 C   0  0  0  0  0  0  0  0  0  0  0  0
   -2.9464    0.0000    0.0000 C   0  0  0  0  0  0  0  0  0  0  0  0
   -2.1964   -1.2990    0.0000 C   0  0  0  0  0  0  0  0  0  0  0  0
   -0.6964   -1.2990    0.0000 C   0  0  0  0  0  0  0  0  0  0  0  0
    0.0536   -0.0000    0.0000 C   0  0  0  0  0  0  0  0  0  0  0  0
    1.5536   -0.0000    0.0000 N   0  0  0  0  0  0  0  0  0  0  0  0
    2.3036   -1.2990    0.0000 C   0  0  0  0  0  0  0  0  0  0  0  0
    3.8036   -1.2990    0.0000 C   0  0  0  0  0  0  0  0  0  0  0  0
    4.5536   -0.0000    0.0000 N   0  0  0  0  0  0  0  0  0  0  0  0
    6.0536    0.0000    0.0000 C   0  0  0  0  0  0  0  0  0  0  0  0
    6.8036   -1.2990    0.0000 C   0  0  0  0  0  0  0  0  0  0  0  0
    8.3036   -1.2990    0.0000 C   0  0  0  0  0  0  0  0  0  0  0  0
    9.0536    0.0000    0.0000 C   0  0  0  0  0  0  0  0  0  0  0  0
    8.3036    1.2990    0.0000 C   0  0  0  0  0  0  0  0  0  0  0  0
    6.8036    1.2990    0.0000 C   0  0  0  0  0  0  0  0  0  0  0  0
    3.8036    1.2990    0.0000 C   0  0  0  0  0  0  0  0  0  0  0  0
    2.3036    1.2990    0.0000 C   0  0  0  0  0  0  0  0  0  0  0  0
   -0.6964    1.2990    0.0000 C   0  0  0  0  0  0  0  0  0  0  0  0
   -2.1964    1.2990    0.0000 C   0  0  0  0  0  0  0  0  0  0  0  0
  1  2  1  0
  2  3  1  0
  3  4  2  0
  4  5  1  0
  5  6  2  0
  6  7  1  0
  7  8  1  0
  8  9  1  0
  7 10  2  0
 10 11  1  0
 11 12  1  0
 12 13  1  0
 13 14  1  0
 14 15  1  0
 15 16  1  0
 16 17  1  0
 17 18  1  0
 18 19  1  0
 19 20  1  0
 20 21  1  0
 21 22  1  0
 22 23  1  0
 23 24  1  0
 18 25  1  0
 25 26  1  0
 14 27  1  0
 27 28  1  0
 10  3  1  0
 28 11  1  0
 26 15  1  0
 24 19  1  0
M  END
>  <Compound_Key>  (1027) 
SYA013-D-8

>  <Ki>  (1027) 
7.92

>  <database>  (1027) 
NewLiterature

>  <Document_ChEMBL_ID>  (1027) 
10.1016/j.bmc.2022.117042

$$$$

     RDKit          2D

 26 29  0  0  0  0  0  0  0  0999 V2000
   -4.8462   -2.5981    0.0000 F   0  0  0  0  0  0  0  0  0  0  0  0
   -5.5962   -1.2990    0.0000 C   0  0  0  0  0  0  0  0  0  0  0  0
   -7.0962   -1.2990    0.0000 C   0  0  0  0  0  0  0  0  0  0  0  0
   -7.8462    0.0000    0.0000 C   0  0  0  0  0  0  0  0  0  0  0  0
   -7.0962    1.2990    0.0000 C   0  0  0  0  0  0  0  0  0  0  0  0
   -5.5962    1.2990    0.0000 C   0  0  0  0  0  0  0  0  0  0  0  0
   -4.8462    2.5981    0.0000 F   0  0  0  0  0  0  0  0  0  0  0  0
   -4.8462    0.0000    0.0000 C   0  0  0  0  0  0  0  0  0  0  0  0
   -3.3462    0.0000    0.0000 C   0  0  0  0  0  0  0  0  0  0  0  0
   -2.5962   -1.2990    0.0000 C   0  0  0  0  0  0  0  0  0  0  0  0
   -1.0962   -1.2990    0.0000 C   0  0  0  0  0  0  0  0  0  0  0  0
   -0.3462   -0.0000    0.0000 C   0  0  0  0  0  0  0  0  0  0  0  0
    1.1538   -0.0000    0.0000 N   0  0  0  0  0  0  0  0  0  0  0  0
    1.9038   -1.2990    0.0000 C   0  0  0  0  0  0  0  0  0  0  0  0
    3.4038   -1.2990    0.0000 C   0  0  0  0  0  0  0  0  0  0  0  0
    4.1538    0.0000    0.0000 N   0  0  0  0  0  0  0  0  0  0  0  0
    5.6538    0.0000    0.0000 C   0  0  0  0  0  0  0  0  0  0  0  0
    6.4038   -1.2990    0.0000 C   0  0  0  0  0  0  0  0  0  0  0  0
    7.9038   -1.2990    0.0000 C   0  0  0  0  0  0  0  0  0  0  0  0
    8.6538    0.0000    0.0000 C   0  0  0  0  0  0  0  0  0  0  0  0
    7.9038    1.2990    0.0000 C   0  0  0  0  0  0  0  0  0  0  0  0
    6.4038    1.2990    0.0000 C   0  0  0  0  0  0  0  0  0  0  0  0
    3.4038    1.2990    0.0000 C   0  0  0  0  0  0  0  0  0  0  0  0
    1.9038    1.2990    0.0000 C   0  0  0  0  0  0  0  0  0  0  0  0
   -1.0962    1.2990    0.0000 C   0  0  0  0  0  0  0  0  0  0  0  0
   -2.5962    1.2990    0.0000 C   0  0  0  0  0  0  0  0  0  0  0  0
  1  2  1  0
  2  3  2  0
  3  4  1  0
  4  5  2  0
  5  6  1  0
  6  7  1  0
  6  8  2  0
  8  9  1  0
  9 10  1  0
 10 11  1  0
 11 12  1  0
 12 13  1  0
 13 14  1  0
 14 15  1  0
 15 16  1  0
 16 17  1  0
 17 18  1  0
 18 19  1  0
 19 20  1  0
 20 21  1  0
 21 22  1  0
 16 23  1  0
 23 24  1  0
 12 25  1  0
 25 26  1  0
  8  2  1  0
 26  9  1  0
 24 13  1  0
 22 17  1  0
M  END
>  <Compound_Key>  (1028) 
SYA013-D-9

>  <Ki>  (1028) 
14.1

>  <database>  (1028) 
NewLiterature

>  <Document_ChEMBL_ID>  (1028) 
10.1016/j.bmc.2022.117043

$$$$

     RDKit          2D

 24 27  0  0  0  0  0  0  0  0999 V2000
   -6.2250    2.8188    0.0000 C   0  0  0  0  0  0  0  0  0  0  0  0
   -4.7378    2.6237    0.0000 C   0  0  0  0  0  0  0  0  0  0  0  0
   -4.1631    1.2381    0.0000 C   0  0  0  0  0  0  0  0  0  0  0  0
   -5.0757    0.0477    0.0000 C   0  0  0  0  0  0  0  0  0  0  0  0
   -4.5010   -1.3379    0.0000 C   0  0  0  0  0  0  0  0  0  0  0  0
   -3.0137   -1.5329    0.0000 C   0  0  0  0  0  0  0  0  0  0  0  0
   -2.4390   -2.9185    0.0000 C   0  0  0  0  0  0  0  0  0  0  0  0
   -0.9518   -3.1136    0.0000 C   0  0  0  0  0  0  0  0  0  0  0  0
   -0.0392   -1.9231    0.0000 N   0  0  0  0  0  0  0  0  0  0  0  0
    1.4481   -2.1182    0.0000 C   0  0  0  0  0  0  0  0  0  0  0  0
    2.3606   -0.9277    0.0000 C   0  0  0  0  0  0  0  0  0  0  0  0
    1.9339    0.5103    0.0000 C   0  0  0  0  0  0  0  0  0  0  0  0
    3.1697    1.3605    0.0000 S   0  0  0  0  0  0  0  0  0  0  0  0
    4.3602    0.4479    0.0000 C   0  0  0  0  0  0  0  0  0  0  0  0
    5.4487   -0.5841    0.0000 C   0  0  0  0  0  0  0  0  0  0  0  0
    6.8868   -0.1573    0.0000 C   0  0  0  0  0  0  0  0  0  0  0  0
    7.2362    1.3014    0.0000 C   0  0  0  0  0  0  0  0  0  0  0  0
    6.1477    2.3334    0.0000 C   0  0  0  0  0  0  0  0  0  0  0  0
    4.7097    1.9067    0.0000 C   0  0  0  0  0  0  0  0  0  0  0  0
    3.8601   -0.9663    0.0000 S   0  0  0  0  0  0  0  0  0  0  0  0
   -0.6139   -0.5376    0.0000 C   0  0  0  0  0  0  0  0  0  0  0  0
   -2.1011   -0.3425    0.0000 C   0  0  0  0  0  0  0  0  0  0  0  0
   -6.5629    0.2428    0.0000 C   0  0  0  0  0  0  0  0  0  0  0  0
   -7.1376    1.6283    0.0000 C   0  0  0  0  0  0  0  0  0  0  0  0
  1  2  2  0
  2  3  1  0
  3  4  2  0
  4  5  1  0
  5  6  1  0
  6  7  1  0
  7  8  1  0
  8  9  1  0
  9 10  1  0
 10 11  1  0
 11 12  1  0
 12 13  1  0
 13 14  1  0
 14 15  1  0
 15 16  1  0
 16 17  1  0
 17 18  1  0
 18 19  1  0
 14 20  1  0
  9 21  1  0
 21 22  1  0
  4 23  1  0
 23 24  2  0
 24  1  1  0
 22  6  1  0
 20 11  1  0
 19 14  1  0
M  END
>  <Compound_Key>  (1029) 
SYA013-D-10

>  <Ki>  (1029) 
19.5

>  <database>  (1029) 
NewLiterature

>  <Document_ChEMBL_ID>  (1029) 
10.1016/j.bmc.2022.117044

$$$$

     RDKit          2D

 24 27  0  0  0  0  0  0  0  0999 V2000
   -6.2250    2.8188    0.0000 C   0  0  0  0  0  0  0  0  0  0  0  0
   -4.7378    2.6237    0.0000 C   0  0  0  0  0  0  0  0  0  0  0  0
   -4.1631    1.2381    0.0000 C   0  0  0  0  0  0  0  0  0  0  0  0
   -5.0757    0.0477    0.0000 C   0  0  0  0  0  0  0  0  0  0  0  0
   -4.5010   -1.3379    0.0000 C   0  0  0  0  0  0  0  0  0  0  0  0
   -3.0137   -1.5329    0.0000 N   0  0  0  0  0  0  0  0  0  0  0  0
   -2.4390   -2.9185    0.0000 C   0  0  0  0  0  0  0  0  0  0  0  0
   -0.9518   -3.1136    0.0000 C   0  0  0  0  0  0  0  0  0  0  0  0
   -0.0392   -1.9231    0.0000 N   0  0  0  0  0  0  0  0  0  0  0  0
    1.4481   -2.1182    0.0000 C   0  0  0  0  0  0  0  0  0  0  0  0
    2.3606   -0.9277    0.0000 C   0  0  0  0  0  0  0  0  0  0  0  0
    1.9339    0.5103    0.0000 C   0  0  0  0  0  0  0  0  0  0  0  0
    3.1697    1.3605    0.0000 S   0  0  0  0  0  0  0  0  0  0  0  0
    4.3602    0.4479    0.0000 C   0  0  0  0  0  0  0  0  0  0  0  0
    5.4487   -0.5841    0.0000 C   0  0  0  0  0  0  0  0  0  0  0  0
    6.8868   -0.1573    0.0000 C   0  0  0  0  0  0  0  0  0  0  0  0
    7.2362    1.3014    0.0000 C   0  0  0  0  0  0  0  0  0  0  0  0
    6.1477    2.3334    0.0000 C   0  0  0  0  0  0  0  0  0  0  0  0
    4.7097    1.9067    0.0000 C   0  0  0  0  0  0  0  0  0  0  0  0
    3.8601   -0.9663    0.0000 S   0  0  0  0  0  0  0  0  0  0  0  0
   -0.6139   -0.5376    0.0000 C   0  0  0  0  0  0  0  0  0  0  0  0
   -2.1011   -0.3425    0.0000 C   0  0  0  0  0  0  0  0  0  0  0  0
   -6.5629    0.2428    0.0000 C   0  0  0  0  0  0  0  0  0  0  0  0
   -7.1376    1.6283    0.0000 C   0  0  0  0  0  0  0  0  0  0  0  0
  1  2  2  0
  2  3  1  0
  3  4  2  0
  4  5  1  0
  5  6  1  0
  6  7  1  0
  7  8  1  0
  8  9  1  0
  9 10  1  0
 10 11  1  0
 11 12  1  0
 12 13  1  0
 13 14  1  0
 14 15  1  0
 15 16  1  0
 16 17  1  0
 17 18  1  0
 18 19  1  0
 14 20  1  0
  9 21  1  0
 21 22  1  0
  4 23  1  0
 23 24  2  0
 24  1  1  0
 22  6  1  0
 20 11  1  0
 19 14  1  0
M  END
>  <Compound_Key>  (1030) 
SYA013-D-11

>  <Ki>  (1030) 
75.9

>  <database>  (1030) 
NewLiterature

>  <Document_ChEMBL_ID>  (1030) 
10.1016/j.bmc.2022.117045

$$$$

     RDKit          2D

 23 24  0  0  0  0  0  0  0  0999 V2000
   -4.3855    1.7392    0.0000 C   0  0  0  0  0  0  0  0  0  0  0  0
   -3.1229    0.9294    0.0000 C   0  0  0  0  0  0  0  0  0  0  0  0
   -1.7903    1.6179    0.0000 O   0  0  0  0  0  0  0  0  0  0  0  0
   -3.1929   -0.5690    0.0000 N   0  0  0  0  0  0  0  0  0  0  0  0
   -1.9303   -1.3788    0.0000 C   0  0  0  0  0  0  0  0  0  0  0  0
   -0.5977   -0.6903    0.0000 C   0  0  0  0  0  0  0  0  0  0  0  0
   -0.5277    0.8081    0.0000 C   0  0  0  0  0  0  0  0  0  0  0  0
    0.8050    1.4967    0.0000 C   0  0  0  0  0  0  0  0  0  0  0  0
    2.0676    0.6869    0.0000 N   0  0  0  0  0  0  0  0  0  0  0  0
    3.4002    1.3754    0.0000 C   0  0  0  0  0  0  0  0  0  0  0  0
    4.6628    0.5656    0.0000 C   0  0  0  0  0  0  0  0  0  0  0  0
    4.5928   -0.9327    0.0000 C   0  0  0  0  0  0  0  0  0  0  0  0
    5.8555   -1.7425    0.0000 C   0  0  0  0  0  0  0  0  0  0  0  0
    7.1881   -1.0540    0.0000 C   0  0  0  0  0  0  0  0  0  0  0  0
    7.2581    0.4444    0.0000 C   0  0  0  0  0  0  0  0  0  0  0  0
    5.9954    1.2542    0.0000 C   0  0  0  0  0  0  0  0  0  0  0  0
    1.9976   -0.8115    0.0000 C   0  0  0  0  0  0  0  0  0  0  0  0
    0.6650   -1.5001    0.0000 C   0  0  0  0  0  0  0  0  0  0  0  0
   -4.5255   -1.2576    0.0000 C   0  0  0  0  0  0  0  0  0  0  0  0
   -5.7882   -0.4478    0.0000 C   0  0  0  0  0  0  0  0  0  0  0  0
   -6.5980   -1.7104    0.0000 C   0  0  0  0  0  0  0  0  0  0  0  0
   -4.9784    0.8148    0.0000 C   0  0  0  0  0  0  0  0  0  0  0  0
   -7.0508    0.3620    0.0000 C   0  0  0  0  0  0  0  0  0  0  0  0
  1  2  1  0
  2  3  2  0
  2  4  1  0
  4  5  1  0
  5  6  1  0
  6  7  1  0
  7  8  1  0
  8  9  1  0
  9 10  1  0
 10 11  1  0
 11 12  2  0
 12 13  1  0
 13 14  2  0
 14 15  1  0
 15 16  2  0
  9 17  1  0
 17 18  1  0
  4 19  1  0
 19 20  1  0
 20 21  1  0
 20 22  1  0
 20 23  1  0
 18  6  1  0
 16 11  1  0
M  END
>  <Compound_Key>  (1031) 
SYA013-D-12

>  <Ki>  (1031) 
1117.0

>  <database>  (1031) 
NewLiterature

>  <Document_ChEMBL_ID>  (1031) 
10.1016/j.bmc.2022.117046

$$$$

     RDKit          2D

 22 23  0  0  0  0  0  0  0  0999 V2000
   -7.2853   -0.6313    0.0000 C   0  0  0  0  0  0  0  0  0  0  0  0
   -6.0097   -1.4204    0.0000 C   0  0  0  0  0  0  0  0  0  0  0  0
   -4.6885   -0.7102    0.0000 N   0  0  0  0  0  0  0  0  0  0  0  0
   -3.4128   -1.4993    0.0000 C   0  0  0  0  0  0  0  0  0  0  0  0
   -2.0916   -0.7891    0.0000 C   0  0  0  0  0  0  0  0  0  0  0  0
   -2.0460    0.7102    0.0000 C   0  0  0  0  0  0  0  0  0  0  0  0
   -0.7248    1.4204    0.0000 C   0  0  0  0  0  0  0  0  0  0  0  0
    0.5509    0.6313    0.0000 N   0  0  0  0  0  0  0  0  0  0  0  0
    1.8721    1.3415    0.0000 C   0  0  0  0  0  0  0  0  0  0  0  0
    3.1477    0.5524    0.0000 C   0  0  0  0  0  0  0  0  0  0  0  0
    3.1022   -0.9469    0.0000 C   0  0  0  0  0  0  0  0  0  0  0  0
    4.3778   -1.7360    0.0000 C   0  0  0  0  0  0  0  0  0  0  0  0
    5.6990   -1.0258    0.0000 C   0  0  0  0  0  0  0  0  0  0  0  0
    6.9747   -1.8150    0.0000 Cl  0  0  0  0  0  0  0  0  0  0  0  0
    5.7446    0.4735    0.0000 C   0  0  0  0  0  0  0  0  0  0  0  0
    4.4689    1.2626    0.0000 C   0  0  0  0  0  0  0  0  0  0  0  0
    4.5145    2.7619    0.0000 Cl  0  0  0  0  0  0  0  0  0  0  0  0
    0.5053   -0.8680    0.0000 C   0  0  0  0  0  0  0  0  0  0  0  0
   -0.8159   -1.5782    0.0000 C   0  0  0  0  0  0  0  0  0  0  0  0
   -4.6429    0.7891    0.0000 C   0  0  0  0  0  0  0  0  0  0  0  0
   -5.9186    1.5782    0.0000 C   0  0  0  0  0  0  0  0  0  0  0  0
   -3.3217    1.4993    0.0000 O   0  0  0  0  0  0  0  0  0  0  0  0
  1  2  1  0
  2  3  1  0
  3  4  1  0
  4  5  1  0
  5  6  1  0
  6  7  1  0
  7  8  1  0
  8  9  1  0
  9 10  1  0
 10 11  2  0
 11 12  1  0
 12 13  2  0
 13 14  1  0
 13 15  1  0
 15 16  2  0
 16 17  1  0
  8 18  1  0
 18 19  1  0
  3 20  1  0
 20 21  1  0
 20 22  2  0
 19  5  1  0
 16 10  1  0
M  END
>  <Compound_Key>  (1032) 
SYA013-D-13

>  <Ki>  (1032) 
19.6

>  <database>  (1032) 
NewLiterature

>  <Document_ChEMBL_ID>  (1032) 
10.1016/j.bmc.2022.117047

$$$$

     RDKit          2D

 22 24  0  0  0  0  0  0  0  0999 V2000
    7.8370   -0.6398    0.0000 C   0  0  0  0  0  0  0  0  0  0  0  0
    7.0789   -1.9341    0.0000 C   0  0  0  0  0  0  0  0  0  0  0  0
    5.5789   -1.9246    0.0000 C   0  0  0  0  0  0  0  0  0  0  0  0
    4.8371   -0.6209    0.0000 C   0  0  0  0  0  0  0  0  0  0  0  0
    3.3371   -0.6115    0.0000 C   0  0  0  0  0  0  0  0  0  0  0  0
    2.5953    0.6923    0.0000 N   0  0  0  0  0  0  0  0  0  0  0  0
    1.0953    0.7017    0.0000 C   0  0  0  0  0  0  0  0  0  0  0  0
    0.3535    2.0054    0.0000 C   0  0  0  0  0  0  0  0  0  0  0  0
   -1.1464    2.0149    0.0000 C   0  0  0  0  0  0  0  0  0  0  0  0
   -1.8883    3.3186    0.0000 C   0  0  0  0  0  0  0  0  0  0  0  0
   -3.3882    3.3280    0.0000 C   0  0  0  0  0  0  0  0  0  0  0  0
   -4.1464    2.0337    0.0000 O   0  0  0  0  0  0  0  0  0  0  0  0
   -3.4046    0.7300    0.0000 C   0  0  0  0  0  0  0  0  0  0  0  0
   -4.1627   -0.5643    0.0000 C   0  0  0  0  0  0  0  0  0  0  0  0
   -5.6627   -0.5549    0.0000 C   0  0  0  0  0  0  0  0  0  0  0  0
   -6.4208   -1.8492    0.0000 C   0  0  0  0  0  0  0  0  0  0  0  0
   -5.6790   -3.1529    0.0000 C   0  0  0  0  0  0  0  0  0  0  0  0
   -4.1791   -3.1623    0.0000 C   0  0  0  0  0  0  0  0  0  0  0  0
   -3.4209   -1.8680    0.0000 C   0  0  0  0  0  0  0  0  0  0  0  0
   -1.9046    0.7206    0.0000 O   0  0  0  0  0  0  0  0  0  0  0  0
    5.5953    0.6734    0.0000 C   0  0  0  0  0  0  0  0  0  0  0  0
    7.0952    0.6640    0.0000 C   0  0  0  0  0  0  0  0  0  0  0  0
  1  2  2  0
  2  3  1  0
  3  4  2  0
  4  5  1  0
  5  6  1  0
  6  7  1  0
  7  8  1  0
  8  9  1  0
  9 10  1  0
 10 11  1  0
 11 12  1  0
 12 13  1  0
 13 14  1  0
 14 15  2  0
 15 16  1  0
 16 17  2  0
 17 18  1  0
 18 19  2  0
 13 20  1  0
  4 21  1  0
 21 22  2  0
 22  1  1  0
 20  9  1  0
 19 14  1  0
M  END
>  <Compound_Key>  (1033) 
SYA013-D-14

>  <Ki>  (1033) 
92.0

>  <database>  (1033) 
NewLiterature

>  <Document_ChEMBL_ID>  (1033) 
10.1016/j.bmc.2022.117048

$$$$

     RDKit          2D

 22 24  0  0  0  0  0  0  0  0999 V2000
    7.8370   -0.6398    0.0000 C   0  0  0  0  0  0  0  0  0  0  0  0
    7.0789   -1.9341    0.0000 C   0  0  0  0  0  0  0  0  0  0  0  0
    5.5789   -1.9246    0.0000 C   0  0  0  0  0  0  0  0  0  0  0  0
    4.8371   -0.6209    0.0000 C   0  0  0  0  0  0  0  0  0  0  0  0
    3.3371   -0.6115    0.0000 C   0  0  0  0  0  0  0  0  0  0  0  0
    2.5953    0.6923    0.0000 N   0  0  0  0  0  0  0  0  0  0  0  0
    1.0953    0.7017    0.0000 C   0  0  0  0  0  0  0  0  0  0  0  0
    0.3535    2.0054    0.0000 C   0  0  0  0  0  0  0  0  0  0  0  0
   -1.1464    2.0149    0.0000 C   0  0  0  0  0  0  0  0  0  0  0  0
   -1.8883    3.3186    0.0000 C   0  0  0  0  0  0  0  0  0  0  0  0
   -3.3882    3.3280    0.0000 C   0  0  0  0  0  0  0  0  0  0  0  0
   -4.1464    2.0337    0.0000 C   0  0  0  0  0  0  0  0  0  0  0  0
   -3.4046    0.7300    0.0000 C   0  0  0  0  0  0  0  0  0  0  0  0
   -4.1627   -0.5643    0.0000 C   0  0  0  0  0  0  0  0  0  0  0  0
   -5.6627   -0.5549    0.0000 C   0  0  0  0  0  0  0  0  0  0  0  0
   -6.4208   -1.8492    0.0000 C   0  0  0  0  0  0  0  0  0  0  0  0
   -5.6790   -3.1529    0.0000 C   0  0  0  0  0  0  0  0  0  0  0  0
   -4.1791   -3.1623    0.0000 C   0  0  0  0  0  0  0  0  0  0  0  0
   -3.4209   -1.8680    0.0000 C   0  0  0  0  0  0  0  0  0  0  0  0
   -1.9046    0.7206    0.0000 C   0  0  0  0  0  0  0  0  0  0  0  0
    5.5953    0.6734    0.0000 C   0  0  0  0  0  0  0  0  0  0  0  0
    7.0952    0.6640    0.0000 C   0  0  0  0  0  0  0  0  0  0  0  0
  1  2  2  0
  2  3  1  0
  3  4  2  0
  4  5  1  0
  5  6  1  0
  6  7  1  0
  7  8  1  0
  9  8  1  6
  9 10  1  0
 10 11  1  0
 11 12  1  0
 12 13  1  0
 13 14  1  6
 14 15  2  0
 15 16  1  0
 16 17  2  0
 17 18  1  0
 18 19  2  0
 13 20  1  0
  4 21  1  0
 21 22  2  0
 22  1  1  0
 20  9  1  0
 19 14  1  0
M  END
>  <Compound_Key>  (1034) 
SYA013-D-(1R,3S)-15

>  <Ki>  (1034) 
49.0

>  <database>  (1034) 
NewLiterature

>  <Document_ChEMBL_ID>  (1034) 
10.1016/j.bmc.2022.117049

$$$$

     RDKit          2D

 22 24  0  0  0  0  0  0  0  0999 V2000
    7.8370   -0.6398    0.0000 C   0  0  0  0  0  0  0  0  0  0  0  0
    7.0789   -1.9341    0.0000 C   0  0  0  0  0  0  0  0  0  0  0  0
    5.5789   -1.9246    0.0000 C   0  0  0  0  0  0  0  0  0  0  0  0
    4.8371   -0.6209    0.0000 C   0  0  0  0  0  0  0  0  0  0  0  0
    3.3371   -0.6115    0.0000 C   0  0  0  0  0  0  0  0  0  0  0  0
    2.5953    0.6923    0.0000 N   0  0  0  0  0  0  0  0  0  0  0  0
    1.0953    0.7017    0.0000 C   0  0  0  0  0  0  0  0  0  0  0  0
    0.3535    2.0054    0.0000 C   0  0  0  0  0  0  0  0  0  0  0  0
   -1.1464    2.0149    0.0000 C   0  0  0  0  0  0  0  0  0  0  0  0
   -1.8883    3.3186    0.0000 C   0  0  0  0  0  0  0  0  0  0  0  0
   -3.3882    3.3280    0.0000 C   0  0  0  0  0  0  0  0  0  0  0  0
   -4.1464    2.0337    0.0000 C   0  0  0  0  0  0  0  0  0  0  0  0
   -3.4046    0.7300    0.0000 C   0  0  0  0  0  0  0  0  0  0  0  0
   -4.1627   -0.5643    0.0000 C   0  0  0  0  0  0  0  0  0  0  0  0
   -5.6627   -0.5549    0.0000 C   0  0  0  0  0  0  0  0  0  0  0  0
   -6.4208   -1.8492    0.0000 C   0  0  0  0  0  0  0  0  0  0  0  0
   -5.6790   -3.1529    0.0000 C   0  0  0  0  0  0  0  0  0  0  0  0
   -4.1791   -3.1623    0.0000 C   0  0  0  0  0  0  0  0  0  0  0  0
   -3.4209   -1.8680    0.0000 C   0  0  0  0  0  0  0  0  0  0  0  0
   -1.9046    0.7206    0.0000 C   0  0  0  0  0  0  0  0  0  0  0  0
    5.5953    0.6734    0.0000 C   0  0  0  0  0  0  0  0  0  0  0  0
    7.0952    0.6640    0.0000 C   0  0  0  0  0  0  0  0  0  0  0  0
  1  2  2  0
  2  3  1  0
  3  4  2  0
  4  5  1  0
  5  6  1  0
  6  7  1  0
  7  8  1  0
  9  8  1  1
  9 10  1  0
 10 11  1  0
 11 12  1  0
 12 13  1  0
 13 14  1  1
 14 15  2  0
 15 16  1  0
 16 17  2  0
 17 18  1  0
 18 19  2  0
 13 20  1  0
  4 21  1  0
 21 22  2  0
 22  1  1  0
 20  9  1  0
 19 14  1  0
M  END
>  <Compound_Key>  (1035) 
SYA013-D-(1S,3R)-15

>  <Ki>  (1035) 
47.0

>  <database>  (1035) 
NewLiterature

>  <Document_ChEMBL_ID>  (1035) 
10.1016/j.bmc.2022.117050

$$$$

     RDKit          2D

 22 24  0  0  0  0  0  0  0  0999 V2000
    7.8370   -0.6398    0.0000 C   0  0  0  0  0  0  0  0  0  0  0  0
    7.0789   -1.9341    0.0000 C   0  0  0  0  0  0  0  0  0  0  0  0
    5.5789   -1.9246    0.0000 C   0  0  0  0  0  0  0  0  0  0  0  0
    4.8371   -0.6209    0.0000 C   0  0  0  0  0  0  0  0  0  0  0  0
    3.3371   -0.6115    0.0000 C   0  0  0  0  0  0  0  0  0  0  0  0
    2.5953    0.6923    0.0000 N   0  0  0  0  0  0  0  0  0  0  0  0
    1.0953    0.7017    0.0000 C   0  0  0  0  0  0  0  0  0  0  0  0
    0.3535    2.0054    0.0000 C   0  0  0  0  0  0  0  0  0  0  0  0
   -1.1464    2.0149    0.0000 C   0  0  0  0  0  0  0  0  0  0  0  0
   -1.8883    3.3186    0.0000 C   0  0  0  0  0  0  0  0  0  0  0  0
   -3.3882    3.3280    0.0000 C   0  0  0  0  0  0  0  0  0  0  0  0
   -4.1464    2.0337    0.0000 C   0  0  0  0  0  0  0  0  0  0  0  0
   -3.4046    0.7300    0.0000 C   0  0  0  0  0  0  0  0  0  0  0  0
   -4.1627   -0.5643    0.0000 C   0  0  0  0  0  0  0  0  0  0  0  0
   -5.6627   -0.5549    0.0000 C   0  0  0  0  0  0  0  0  0  0  0  0
   -6.4208   -1.8492    0.0000 C   0  0  0  0  0  0  0  0  0  0  0  0
   -5.6790   -3.1529    0.0000 C   0  0  0  0  0  0  0  0  0  0  0  0
   -4.1791   -3.1623    0.0000 C   0  0  0  0  0  0  0  0  0  0  0  0
   -3.4209   -1.8680    0.0000 C   0  0  0  0  0  0  0  0  0  0  0  0
   -1.9046    0.7206    0.0000 O   0  0  0  0  0  0  0  0  0  0  0  0
    5.5953    0.6734    0.0000 C   0  0  0  0  0  0  0  0  0  0  0  0
    7.0952    0.6640    0.0000 C   0  0  0  0  0  0  0  0  0  0  0  0
  1  2  2  0
  2  3  1  0
  3  4  2  0
  4  5  1  0
  5  6  1  0
  6  7  1  0
  7  8  1  0
  9  8  1  6
  9 10  1  0
 10 11  1  0
 11 12  1  0
 12 13  1  0
 13 14  1  6
 14 15  2  0
 15 16  1  0
 16 17  2  0
 17 18  1  0
 18 19  2  0
 13 20  1  0
  4 21  1  0
 21 22  2  0
 22  1  1  0
 20  9  1  0
 19 14  1  0
M  END
>  <Compound_Key>  (1036) 
SYA013-D-(2R,6S)-16

>  <Ki>  (1036) 
426.0

>  <database>  (1036) 
NewLiterature

>  <Document_ChEMBL_ID>  (1036) 
10.1016/j.bmc.2022.117051

$$$$

     RDKit          2D

 22 24  0  0  0  0  0  0  0  0999 V2000
    7.8370   -0.6398    0.0000 C   0  0  0  0  0  0  0  0  0  0  0  0
    7.0789   -1.9341    0.0000 C   0  0  0  0  0  0  0  0  0  0  0  0
    5.5789   -1.9246    0.0000 C   0  0  0  0  0  0  0  0  0  0  0  0
    4.8371   -0.6209    0.0000 C   0  0  0  0  0  0  0  0  0  0  0  0
    3.3371   -0.6115    0.0000 C   0  0  0  0  0  0  0  0  0  0  0  0
    2.5953    0.6923    0.0000 N   0  0  0  0  0  0  0  0  0  0  0  0
    1.0953    0.7017    0.0000 C   0  0  0  0  0  0  0  0  0  0  0  0
    0.3535    2.0054    0.0000 C   0  0  0  0  0  0  0  0  0  0  0  0
   -1.1464    2.0149    0.0000 C   0  0  0  0  0  0  0  0  0  0  0  0
   -1.8883    3.3186    0.0000 C   0  0  0  0  0  0  0  0  0  0  0  0
   -3.3882    3.3280    0.0000 C   0  0  0  0  0  0  0  0  0  0  0  0
   -4.1464    2.0337    0.0000 C   0  0  0  0  0  0  0  0  0  0  0  0
   -3.4046    0.7300    0.0000 C   0  0  0  0  0  0  0  0  0  0  0  0
   -4.1627   -0.5643    0.0000 C   0  0  0  0  0  0  0  0  0  0  0  0
   -5.6627   -0.5549    0.0000 C   0  0  0  0  0  0  0  0  0  0  0  0
   -6.4208   -1.8492    0.0000 C   0  0  0  0  0  0  0  0  0  0  0  0
   -5.6790   -3.1529    0.0000 C   0  0  0  0  0  0  0  0  0  0  0  0
   -4.1791   -3.1623    0.0000 C   0  0  0  0  0  0  0  0  0  0  0  0
   -3.4209   -1.8680    0.0000 C   0  0  0  0  0  0  0  0  0  0  0  0
   -1.9046    0.7206    0.0000 O   0  0  0  0  0  0  0  0  0  0  0  0
    5.5953    0.6734    0.0000 C   0  0  0  0  0  0  0  0  0  0  0  0
    7.0952    0.6640    0.0000 C   0  0  0  0  0  0  0  0  0  0  0  0
  1  2  2  0
  2  3  1  0
  3  4  2  0
  4  5  1  0
  5  6  1  0
  6  7  1  0
  7  8  1  0
  9  8  1  1
  9 10  1  0
 10 11  1  0
 11 12  1  0
 12 13  1  0
 13 14  1  1
 14 15  2  0
 15 16  1  0
 16 17  2  0
 17 18  1  0
 18 19  2  0
 13 20  1  0
  4 21  1  0
 21 22  2  0
 22  1  1  0
 20  9  1  0
 19 14  1  0
M  END
>  <Compound_Key>  (1037) 
SYA013-D-(2S,6R)-16

>  <Ki>  (1037) 
378.0

>  <database>  (1037) 
NewLiterature

>  <Document_ChEMBL_ID>  (1037) 
10.1016/j.bmc.2022.117052

$$$$

     RDKit          2D

 23 25  0  0  0  0  0  0  0  0999 V2000
    8.2076   -1.2608    0.0000 C   0  0  0  0  0  0  0  0  0  0  0  0
    6.9985   -2.1486    0.0000 C   0  0  0  0  0  0  0  0  0  0  0  0
    5.6252   -1.5454    0.0000 C   0  0  0  0  0  0  0  0  0  0  0  0
    5.4609   -0.0544    0.0000 C   0  0  0  0  0  0  0  0  0  0  0  0
    4.0875    0.5488    0.0000 C   0  0  0  0  0  0  0  0  0  0  0  0
    3.9232    2.0398    0.0000 C   0  0  0  0  0  0  0  0  0  0  0  0
    2.5499    2.6430    0.0000 C   0  0  0  0  0  0  0  0  0  0  0  0
    1.3408    1.7552    0.0000 C   0  0  0  0  0  0  0  0  0  0  0  0
    1.5051    0.2643    0.0000 C   0  0  0  0  0  0  0  0  0  0  0  0
    0.2960   -0.6235    0.0000 C   0  0  0  0  0  0  0  0  0  0  0  0
   -1.0774   -0.0203    0.0000 C   0  0  0  0  0  0  0  0  0  0  0  0
   -2.2865   -0.9081    0.0000 N   0  0  0  0  0  0  0  0  0  0  0  0
   -3.6598   -0.3048    0.0000 C   0  0  0  0  0  0  0  0  0  0  0  0
   -4.8689   -1.1926    0.0000 C   0  0  0  0  0  0  0  0  0  0  0  0
   -6.2423   -0.5894    0.0000 C   0  0  0  0  0  0  0  0  0  0  0  0
   -6.4066    0.9016    0.0000 C   0  0  0  0  0  0  0  0  0  0  0  0
   -7.7799    1.5048    0.0000 C   0  0  0  0  0  0  0  0  0  0  0  0
   -8.9890    0.6170    0.0000 C   0  0  0  0  0  0  0  0  0  0  0  0
   -8.8247   -0.8740    0.0000 C   0  0  0  0  0  0  0  0  0  0  0  0
   -7.4513   -1.4772    0.0000 C   0  0  0  0  0  0  0  0  0  0  0  0
    2.8784   -0.3390    0.0000 O   0  0  0  0  0  0  0  0  0  0  0  0
    6.6700    0.8334    0.0000 C   0  0  0  0  0  0  0  0  0  0  0  0
    8.0433    0.2302    0.0000 C   0  0  0  0  0  0  0  0  0  0  0  0
  1  2  2  0
  2  3  1  0
  3  4  2  0
  5  4  1  1
  5  6  1  0
  6  7  1  0
  7  8  1  0
  8  9  1  0
  9 10  1  1
 10 11  1  0
 11 12  1  0
 12 13  1  0
 13 14  1  0
 14 15  1  0
 15 16  1  0
 16 17  1  0
 17 18  1  0
 18 19  1  0
 19 20  1  0
  9 21  1  0
  4 22  1  0
 22 23  2  0
 23  1  1  0
 21  5  1  0
 20 15  1  0
M  END
>  <Compound_Key>  (1038) 
SYA013-D-(2R,6S)-17

>  <Ki>  (1038) 
36.0

>  <database>  (1038) 
NewLiterature

>  <Document_ChEMBL_ID>  (1038) 
10.1016/j.bmc.2022.117053

$$$$

     RDKit          2D

 23 25  0  0  0  0  0  0  0  0999 V2000
    8.2076   -1.2608    0.0000 C   0  0  0  0  0  0  0  0  0  0  0  0
    6.9985   -2.1486    0.0000 C   0  0  0  0  0  0  0  0  0  0  0  0
    5.6252   -1.5454    0.0000 C   0  0  0  0  0  0  0  0  0  0  0  0
    5.4609   -0.0544    0.0000 C   0  0  0  0  0  0  0  0  0  0  0  0
    4.0875    0.5488    0.0000 C   0  0  0  0  0  0  0  0  0  0  0  0
    3.9232    2.0398    0.0000 C   0  0  0  0  0  0  0  0  0  0  0  0
    2.5499    2.6430    0.0000 C   0  0  0  0  0  0  0  0  0  0  0  0
    1.3408    1.7552    0.0000 C   0  0  0  0  0  0  0  0  0  0  0  0
    1.5051    0.2643    0.0000 C   0  0  0  0  0  0  0  0  0  0  0  0
    0.2960   -0.6235    0.0000 C   0  0  0  0  0  0  0  0  0  0  0  0
   -1.0774   -0.0203    0.0000 C   0  0  0  0  0  0  0  0  0  0  0  0
   -2.2865   -0.9081    0.0000 N   0  0  0  0  0  0  0  0  0  0  0  0
   -3.6598   -0.3048    0.0000 C   0  0  0  0  0  0  0  0  0  0  0  0
   -4.8689   -1.1926    0.0000 C   0  0  0  0  0  0  0  0  0  0  0  0
   -6.2423   -0.5894    0.0000 C   0  0  0  0  0  0  0  0  0  0  0  0
   -6.4066    0.9016    0.0000 C   0  0  0  0  0  0  0  0  0  0  0  0
   -7.7799    1.5048    0.0000 C   0  0  0  0  0  0  0  0  0  0  0  0
   -8.9890    0.6170    0.0000 C   0  0  0  0  0  0  0  0  0  0  0  0
   -8.8247   -0.8740    0.0000 C   0  0  0  0  0  0  0  0  0  0  0  0
   -7.4513   -1.4772    0.0000 C   0  0  0  0  0  0  0  0  0  0  0  0
    2.8784   -0.3390    0.0000 O   0  0  0  0  0  0  0  0  0  0  0  0
    6.6700    0.8334    0.0000 C   0  0  0  0  0  0  0  0  0  0  0  0
    8.0433    0.2302    0.0000 C   0  0  0  0  0  0  0  0  0  0  0  0
  1  2  2  0
  2  3  1  0
  3  4  2  0
  5  4  1  6
  5  6  1  0
  6  7  1  0
  7  8  1  0
  8  9  1  0
  9 10  1  6
 10 11  1  0
 11 12  1  0
 12 13  1  0
 13 14  1  0
 14 15  1  0
 15 16  1  0
 16 17  1  0
 17 18  1  0
 18 19  1  0
 19 20  1  0
  9 21  1  0
  4 22  1  0
 22 23  2  0
 23  1  1  0
 21  5  1  0
 20 15  1  0
M  END
>  <Compound_Key>  (1039) 
SYA013-D-(2S,6R)-17

>  <Ki>  (1039) 
57.0

>  <database>  (1039) 
NewLiterature

>  <Document_ChEMBL_ID>  (1039) 
10.1016/j.bmc.2022.117054

$$$$

     RDKit          2D

 22 24  0  0  0  0  0  0  0  0999 V2000
    7.8370   -0.6398    0.0000 C   0  0  0  0  0  0  0  0  0  0  0  0
    7.0789   -1.9341    0.0000 C   0  0  0  0  0  0  0  0  0  0  0  0
    5.5789   -1.9246    0.0000 C   0  0  0  0  0  0  0  0  0  0  0  0
    4.8371   -0.6209    0.0000 C   0  0  0  0  0  0  0  0  0  0  0  0
    3.3371   -0.6115    0.0000 C   0  0  0  0  0  0  0  0  0  0  0  0
    2.5953    0.6923    0.0000 N   0  0  0  0  0  0  0  0  0  0  0  0
    1.0953    0.7017    0.0000 C   0  0  0  0  0  0  0  0  0  0  0  0
    0.3535    2.0054    0.0000 C   0  0  0  0  0  0  0  0  0  0  0  0
   -1.1464    2.0149    0.0000 C   0  0  0  0  0  0  0  0  0  0  0  0
   -1.8883    3.3186    0.0000 C   0  0  0  0  0  0  0  0  0  0  0  0
   -3.3882    3.3280    0.0000 C   0  0  0  0  0  0  0  0  0  0  0  0
   -4.1464    2.0337    0.0000 N   0  0  0  0  0  0  0  0  0  0  0  0
   -3.4046    0.7300    0.0000 C   0  0  0  0  0  0  0  0  0  0  0  0
   -4.1627   -0.5643    0.0000 C   0  0  0  0  0  0  0  0  0  0  0  0
   -5.6627   -0.5549    0.0000 C   0  0  0  0  0  0  0  0  0  0  0  0
   -6.4208   -1.8492    0.0000 C   0  0  0  0  0  0  0  0  0  0  0  0
   -5.6790   -3.1529    0.0000 C   0  0  0  0  0  0  0  0  0  0  0  0
   -4.1791   -3.1623    0.0000 C   0  0  0  0  0  0  0  0  0  0  0  0
   -3.4209   -1.8680    0.0000 C   0  0  0  0  0  0  0  0  0  0  0  0
   -1.9046    0.7206    0.0000 C   0  0  0  0  0  0  0  0  0  0  0  0
    5.5953    0.6734    0.0000 C   0  0  0  0  0  0  0  0  0  0  0  0
    7.0952    0.6640    0.0000 C   0  0  0  0  0  0  0  0  0  0  0  0
  1  2  2  0
  2  3  1  0
  3  4  2  0
  4  5  1  0
  5  6  1  0
  6  7  1  0
  7  8  1  0
  8  9  1  0
  9 10  1  0
 10 11  1  0
 11 12  1  0
 12 13  1  0
 13 14  1  1
 14 15  2  0
 15 16  1  0
 16 17  2  0
 17 18  1  0
 18 19  2  0
 13 20  1  0
  4 21  1  0
 21 22  2  0
 22  1  1  0
 20  9  1  0
 19 14  1  0
M  END
>  <Compound_Key>  (1040) 
SYA013-D-18

>  <Ki>  (1040) 
372.0

>  <database>  (1040) 
NewLiterature

>  <Document_ChEMBL_ID>  (1040) 
10.1016/j.bmc.2022.117055

$$$$

     RDKit          2D

 23 25  0  0  0  0  0  0  0  0999 V2000
   -5.4502    1.8122    0.0000 C   0  0  0  0  0  0  0  0  0  0  0  0
   -3.9505    1.8421    0.0000 N   0  0  0  0  0  0  0  0  0  0  0  0
   -3.2265    3.1558    0.0000 C   0  0  0  0  0  0  0  0  0  0  0  0
   -1.7268    3.1856    0.0000 C   0  0  0  0  0  0  0  0  0  0  0  0
   -0.9511    1.9018    0.0000 C   0  0  0  0  0  0  0  0  0  0  0  0
    0.5486    1.9316    0.0000 C   0  0  0  0  0  0  0  0  0  0  0  0
    1.3243    0.6478    0.0000 C   0  0  0  0  0  0  0  0  0  0  0  0
    2.8240    0.6776    0.0000 N   0  0  0  0  0  0  0  0  0  0  0  0
    3.5997   -0.6062    0.0000 C   0  0  0  0  0  0  0  0  0  0  0  0
    5.0994   -0.5764    0.0000 C   0  0  0  0  0  0  0  0  0  0  0  0
    5.8751   -1.8602    0.0000 C   0  0  0  0  0  0  0  0  0  0  0  0
    7.3748   -1.8304    0.0000 C   0  0  0  0  0  0  0  0  0  0  0  0
    8.0988   -0.5167    0.0000 C   0  0  0  0  0  0  0  0  0  0  0  0
    7.3231    0.7672    0.0000 C   0  0  0  0  0  0  0  0  0  0  0  0
    5.8234    0.7373    0.0000 C   0  0  0  0  0  0  0  0  0  0  0  0
   -1.6751    0.5881    0.0000 C   0  0  0  0  0  0  0  0  0  0  0  0
   -3.1748    0.5582    0.0000 C   0  0  0  0  0  0  0  0  0  0  0  0
   -3.8988   -0.7555    0.0000 C   0  0  0  0  0  0  0  0  0  0  0  0
   -5.3985   -0.7854    0.0000 C   0  0  0  0  0  0  0  0  0  0  0  0
   -6.1225   -2.0991    0.0000 C   0  0  0  0  0  0  0  0  0  0  0  0
   -5.3468   -3.3829    0.0000 C   0  0  0  0  0  0  0  0  0  0  0  0
   -3.8471   -3.3531    0.0000 C   0  0  0  0  0  0  0  0  0  0  0  0
   -3.1231   -2.0394    0.0000 C   0  0  0  0  0  0  0  0  0  0  0  0
  1  2  1  0
  2  3  1  0
  3  4  1  0
  4  5  1  0
  5  6  1  0
  6  7  1  0
  7  8  1  0
  8  9  1  0
  9 10  1  0
 10 11  1  0
 11 12  1  0
 12 13  1  0
 13 14  1  0
 14 15  1  0
  5 16  1  0
 16 17  1  0
 17 18  1  1
 18 19  2  0
 19 20  1  0
 20 21  2  0
 21 22  1  0
 22 23  2  0
 17  2  1  0
 23 18  1  0
 15 10  1  0
M  END
>  <Compound_Key>  (1041) 
SYA013-D-19

>  <Ki>  (1041) 
285.0

>  <database>  (1041) 
NewLiterature

>  <Document_ChEMBL_ID>  (1041) 
10.1016/j.bmc.2022.117056

$$$$

     RDKit          2D

 24 26  0  0  0  0  0  0  0  0999 V2000
   -3.0518    2.1173    0.0000 C   0  0  0  0  0  0  0  0  0  0  0  0
   -2.6005    0.6868    0.0000 N   0  0  0  0  0  0  0  0  0  0  0  0
   -1.1360    0.3625    0.0000 C   0  0  0  0  0  0  0  0  0  0  0  0
   -0.6846   -1.0680    0.0000 C   0  0  0  0  0  0  0  0  0  0  0  0
    0.7799   -1.3924    0.0000 C   0  0  0  0  0  0  0  0  0  0  0  0
    1.2312   -2.8229    0.0000 C   0  0  0  0  0  0  0  0  0  0  0  0
    2.6957   -3.1472    0.0000 C   0  0  0  0  0  0  0  0  0  0  0  0
    3.7089   -2.0411    0.0000 N   0  0  0  0  0  0  0  0  0  0  0  0
    5.1734   -2.3655    0.0000 C   0  0  0  0  0  0  0  0  0  0  0  0
    3.2575   -0.6106    0.0000 C   0  0  0  0  0  0  0  0  0  0  0  0
    4.2707    0.4955    0.0000 C   0  0  0  0  0  0  0  0  0  0  0  0
    5.7352    0.1711    0.0000 C   0  0  0  0  0  0  0  0  0  0  0  0
    6.7484    1.2773    0.0000 C   0  0  0  0  0  0  0  0  0  0  0  0
    6.2970    2.7077    0.0000 C   0  0  0  0  0  0  0  0  0  0  0  0
    4.8325    3.0321    0.0000 C   0  0  0  0  0  0  0  0  0  0  0  0
    3.8194    1.9260    0.0000 C   0  0  0  0  0  0  0  0  0  0  0  0
    1.7930   -0.2863    0.0000 C   0  0  0  0  0  0  0  0  0  0  0  0
   -3.6137   -0.4193    0.0000 C   0  0  0  0  0  0  0  0  0  0  0  0
   -5.0782   -0.0949    0.0000 C   0  0  0  0  0  0  0  0  0  0  0  0
   -5.5295    1.3356    0.0000 C   0  0  0  0  0  0  0  0  0  0  0  0
   -6.9940    1.6599    0.0000 C   0  0  0  0  0  0  0  0  0  0  0  0
   -8.0072    0.5538    0.0000 C   0  0  0  0  0  0  0  0  0  0  0  0
   -7.5558   -0.8767    0.0000 C   0  0  0  0  0  0  0  0  0  0  0  0
   -6.0913   -1.2010    0.0000 C   0  0  0  0  0  0  0  0  0  0  0  0
  1  2  1  0
  2  3  1  0
  3  4  1  0
  4  5  1  0
  5  6  1  0
  6  7  1  0
  7  8  1  0
  8  9  1  0
  8 10  1  0
 10 11  1  1
 11 12  2  0
 12 13  1  0
 13 14  2  0
 14 15  1  0
 15 16  2  0
 10 17  1  0
  2 18  1  0
 18 19  1  0
 19 20  2  0
 20 21  1  0
 21 22  2  0
 22 23  1  0
 23 24  2  0
 17  5  1  0
 24 19  1  0
 16 11  1  0
M  END
>  <Compound_Key>  (1042) 
SYA013-D-20

>  <Ki>  (1042) 
77.0

>  <database>  (1042) 
NewLiterature

>  <Document_ChEMBL_ID>  (1042) 
10.1016/j.bmc.2022.117057

$$$$

     RDKit          2D

 27 30  0  0  0  0  0  0  0  0999 V2000
    6.5021   -2.0056    0.0000 C   0  0  0  0  0  0  0  0  0  0  0  0
    5.0067   -1.8884    0.0000 N   0  0  0  0  0  0  0  0  0  0  0  0
    4.1575   -3.1249    0.0000 C   0  0  0  0  0  0  0  0  0  0  0  0
    2.6621   -3.0077    0.0000 C   0  0  0  0  0  0  0  0  0  0  0  0
    2.0158   -1.6540    0.0000 C   0  0  0  0  0  0  0  0  0  0  0  0
    0.5204   -1.5368    0.0000 C   0  0  0  0  0  0  0  0  0  0  0  0
   -0.1258   -0.1832    0.0000 C   0  0  0  0  0  0  0  0  0  0  0  0
   -1.6212   -0.0660    0.0000 N   0  0  0  0  0  0  0  0  0  0  0  0
   -2.2674    1.2877    0.0000 C   0  0  0  0  0  0  0  0  0  0  0  0
   -3.7629    1.4048    0.0000 C   0  0  0  0  0  0  0  0  0  0  0  0
   -4.6121    0.1684    0.0000 N   0  0  0  0  0  0  0  0  0  0  0  0
   -6.1075    0.2855    0.0000 C   0  0  0  0  0  0  0  0  0  0  0  0
   -6.7537    1.6392    0.0000 C   0  0  0  0  0  0  0  0  0  0  0  0
   -8.2491    1.7564    0.0000 C   0  0  0  0  0  0  0  0  0  0  0  0
   -9.0983    0.5199    0.0000 C   0  0  0  0  0  0  0  0  0  0  0  0
   -8.4521   -0.8338    0.0000 C   0  0  0  0  0  0  0  0  0  0  0  0
   -6.9567   -0.9509    0.0000 C   0  0  0  0  0  0  0  0  0  0  0  0
   -3.9658   -1.1853    0.0000 C   0  0  0  0  0  0  0  0  0  0  0  0
   -2.4704   -1.3025    0.0000 C   0  0  0  0  0  0  0  0  0  0  0  0
    2.8650   -0.4175    0.0000 C   0  0  0  0  0  0  0  0  0  0  0  0
    4.3604   -0.5347    0.0000 C   0  0  0  0  0  0  0  0  0  0  0  0
    5.2096    0.7018    0.0000 C   0  0  0  0  0  0  0  0  0  0  0  0
    6.7050    0.5846    0.0000 C   0  0  0  0  0  0  0  0  0  0  0  0
    7.5542    1.8210    0.0000 C   0  0  0  0  0  0  0  0  0  0  0  0
    6.9080    3.1747    0.0000 C   0  0  0  0  0  0  0  0  0  0  0  0
    5.4126    3.2919    0.0000 C   0  0  0  0  0  0  0  0  0  0  0  0
    4.5634    2.0554    0.0000 C   0  0  0  0  0  0  0  0  0  0  0  0
  1  2  1  0
  2  3  1  0
  3  4  1  0
  4  5  1  0
  5  6  1  0
  6  7  1  0
  7  8  1  0
  8  9  1  0
  9 10  1  0
 10 11  1  0
 11 12  1  0
 12 13  2  0
 13 14  1  0
 14 15  2  0
 15 16  1  0
 16 17  2  0
 11 18  1  0
 18 19  1  0
  5 20  1  0
 20 21  1  0
 21 22  1  1
 22 23  2  0
 23 24  1  0
 24 25  2  0
 25 26  1  0
 26 27  2  0
 21  2  1  0
 27 22  1  0
 19  8  1  0
 17 12  1  0
M  END
>  <Compound_Key>  (1043) 
SYA013-D-21

>  <Ki>  (1043) 
1600.0

>  <database>  (1043) 
NewLiterature

>  <Document_ChEMBL_ID>  (1043) 
10.1016/j.bmc.2022.117058

$$$$

     RDKit          2D

 23 25  0  0  0  0  0  0  0  0999 V2000
   -5.2378    2.5915    0.0000 C   0  0  0  0  0  0  0  0  0  0  0  0
   -4.2914    1.4277    0.0000 C   0  0  0  0  0  0  0  0  0  0  0  0
   -2.8103    1.6654    0.0000 C   0  0  0  0  0  0  0  0  0  0  0  0
   -1.8639    0.5017    0.0000 C   0  0  0  0  0  0  0  0  0  0  0  0
   -0.3829    0.7394    0.0000 N   0  0  0  0  0  0  0  0  0  0  0  0
    0.5635   -0.4244    0.0000 C   0  0  0  0  0  0  0  0  0  0  0  0
    2.0446   -0.1867    0.0000 C   0  0  0  0  0  0  0  0  0  0  0  0
    2.5792    1.2148    0.0000 C   0  0  0  0  0  0  0  0  0  0  0  0
    4.0602    1.4525    0.0000 C   0  0  0  0  0  0  0  0  0  0  0  0
    5.0066    0.2888    0.0000 C   0  0  0  0  0  0  0  0  0  0  0  0
    4.4720   -1.1127    0.0000 C   0  0  0  0  0  0  0  0  0  0  0  0
    5.4184   -2.2765    0.0000 C   0  0  0  0  0  0  0  0  0  0  0  0
    6.8994   -2.0388    0.0000 C   0  0  0  0  0  0  0  0  0  0  0  0
    7.4341   -0.6373    0.0000 C   0  0  0  0  0  0  0  0  0  0  0  0
    6.4877    0.5265    0.0000 C   0  0  0  0  0  0  0  0  0  0  0  0
    1.6328    2.3786    0.0000 C   0  0  0  0  0  0  0  0  0  0  0  0
    0.1518    2.1409    0.0000 C   0  0  0  0  0  0  0  0  0  0  0  0
   -4.8260    0.0262    0.0000 C   0  0  0  0  0  0  0  0  0  0  0  0
   -6.3071   -0.2115    0.0000 C   0  0  0  0  0  0  0  0  0  0  0  0
   -6.8417   -1.6130    0.0000 C   0  0  0  0  0  0  0  0  0  0  0  0
   -5.8953   -2.7767    0.0000 C   0  0  0  0  0  0  0  0  0  0  0  0
   -4.4143   -2.5390    0.0000 C   0  0  0  0  0  0  0  0  0  0  0  0
   -3.8796   -1.1375    0.0000 C   0  0  0  0  0  0  0  0  0  0  0  0
  1  2  1  0
  2  3  1  0
  3  4  1  0
  4  5  1  0
  5  6  1  0
  6  7  1  0
  7  8  1  0
  8  9  1  0
  9 10  1  0
 10 11  2  0
 11 12  1  0
 12 13  2  0
 13 14  1  0
 14 15  2  0
  8 16  1  0
 16 17  1  0
  2 18  1  0
 18 19  2  0
 19 20  1  0
 20 21  2  0
 21 22  1  0
 22 23  2  0
 17  5  1  0
 23 18  1  0
 15 10  1  0
M  END
>  <Compound_Key>  (1044) 
SYA013-D-25

>  <Ki>  (1044) 
6.5

>  <database>  (1044) 
NewLiterature

>  <Document_ChEMBL_ID>  (1044) 
10.1016/j.bmc.2022.117059

$$$$

     RDKit          2D

 27 30  0  0  0  0  0  0  0  0999 V2000
    2.5163    2.7496    0.0000 C   0  0  0  0  0  0  0  0  0  0  0  0
    2.4825    1.2500    0.0000 C   0  0  0  0  0  0  0  0  0  0  0  0
    1.1669    0.5294    0.0000 C   0  0  0  0  0  0  0  0  0  0  0  0
   -0.1149    1.3085    0.0000 C   0  0  0  0  0  0  0  0  0  0  0  0
   -1.4305    0.5879    0.0000 N   0  0  0  0  0  0  0  0  0  0  0  0
   -2.7123    1.3670    0.0000 C   0  0  0  0  0  0  0  0  0  0  0  0
   -4.0279    0.6464    0.0000 C   0  0  0  0  0  0  0  0  0  0  0  0
   -4.0617   -0.8532    0.0000 C   0  0  0  0  0  0  0  0  0  0  0  0
   -5.3773   -1.5738    0.0000 C   0  0  0  0  0  0  0  0  0  0  0  0
   -6.6591   -0.7947    0.0000 C   0  0  0  0  0  0  0  0  0  0  0  0
   -6.6253    0.7049    0.0000 C   0  0  0  0  0  0  0  0  0  0  0  0
   -7.9072    1.4839    0.0000 C   0  0  0  0  0  0  0  0  0  0  0  0
   -9.2228    0.7634    0.0000 C   0  0  0  0  0  0  0  0  0  0  0  0
   -9.2565   -0.7363    0.0000 C   0  0  0  0  0  0  0  0  0  0  0  0
   -7.9747   -1.5153    0.0000 C   0  0  0  0  0  0  0  0  0  0  0  0
   -2.7799   -1.6323    0.0000 C   0  0  0  0  0  0  0  0  0  0  0  0
   -1.4643   -0.9117    0.0000 C   0  0  0  0  0  0  0  0  0  0  0  0
    3.7643    0.4709    0.0000 C   0  0  0  0  0  0  0  0  0  0  0  0
    3.7306   -1.0287    0.0000 C   0  0  0  0  0  0  0  0  0  0  0  0
    5.0124   -1.8077    0.0000 C   0  0  0  0  0  0  0  0  0  0  0  0
    6.3280   -1.0872    0.0000 C   0  0  0  0  0  0  0  0  0  0  0  0
    7.6098   -1.8662    0.0000 C   0  0  0  0  0  0  0  0  0  0  0  0
    8.9254   -1.1456    0.0000 C   0  0  0  0  0  0  0  0  0  0  0  0
    8.9592    0.3540    0.0000 C   0  0  0  0  0  0  0  0  0  0  0  0
    7.6773    1.1330    0.0000 C   0  0  0  0  0  0  0  0  0  0  0  0
    6.3617    0.4125    0.0000 C   0  0  0  0  0  0  0  0  0  0  0  0
    5.0799    1.1915    0.0000 C   0  0  0  0  0  0  0  0  0  0  0  0
  1  2  1  0
  2  3  2  0
  3  4  1  0
  4  5  1  0
  5  6  1  0
  6  7  1  0
  7  8  1  0
  8  9  1  0
  9 10  1  0
 10 11  2  0
 11 12  1  0
 12 13  2  0
 13 14  1  0
 14 15  2  0
  8 16  1  0
 16 17  1  0
  2 18  1  0
 18 19  2  0
 19 20  1  0
 20 21  2  0
 21 22  1  0
 22 23  2  0
 23 24  1  0
 24 25  2  0
 25 26  1  0
 26 27  2  0
 17  5  1  0
 27 18  1  0
 15 10  1  0
 26 21  1  0
M  END
>  <Compound_Key>  (1045) 
RC-106(SYA013-D-25)

>  <Ki>  (1045) 
22.0

>  <database>  (1045) 
NewLiterature

>  <Document_ChEMBL_ID>  (1045) 
10.1016/j.bmc.2022.117060

$$$$

     RDKit          2D

 21 23  0  0  0  0  0  0  0  0999 V2000
   -7.7027   -1.9641    0.0000 Cl  0  0  0  0  0  0  0  0  0  0  0  0
   -6.5885   -0.9598    0.0000 C   0  0  0  0  0  0  0  0  0  0  0  0
   -6.9012    0.5073    0.0000 C   0  0  0  0  0  0  0  0  0  0  0  0
   -5.7871    1.5116    0.0000 C   0  0  0  0  0  0  0  0  0  0  0  0
   -4.3602    1.0489    0.0000 C   0  0  0  0  0  0  0  0  0  0  0  0
   -3.0616    1.7997    0.0000 S   0  0  0  0  0  0  0  0  0  0  0  0
   -1.9463    0.7966    0.0000 C   0  0  0  0  0  0  0  0  0  0  0  0
   -0.4793    1.1093    0.0000 S   0  0  0  0  0  0  0  0  0  0  0  0
    0.5250   -0.0048    0.0000 C   0  0  0  0  0  0  0  0  0  0  0  0
    1.9921    0.3079    0.0000 C   0  0  0  0  0  0  0  0  0  0  0  0
    2.9964   -0.8062    0.0000 C   0  0  0  0  0  0  0  0  0  0  0  0
    4.4635   -0.4935    0.0000 N   0  0  0  0  0  0  0  0  0  0  0  0
    4.8182    0.9639    0.0000 C   0  0  0  0  0  0  0  0  0  0  0  0
    6.1789    1.5953    0.0000 C   0  0  0  0  0  0  0  0  0  0  0  0
    7.5209    0.9251    0.0000 C   0  0  0  0  0  0  0  0  0  0  0  0
    7.8336   -0.5420    0.0000 C   0  0  0  0  0  0  0  0  0  0  0  0
    6.8816   -1.7011    0.0000 C   0  0  0  0  0  0  0  0  0  0  0  0
    5.3817   -1.6796    0.0000 C   0  0  0  0  0  0  0  0  0  0  0  0
   -2.5557   -0.5740    0.0000 N   0  0  0  0  0  0  0  0  0  0  0  0
   -4.0475   -0.4181    0.0000 C   0  0  0  0  0  0  0  0  0  0  0  0
   -5.1617   -1.4225    0.0000 C   0  0  0  0  0  0  0  0  0  0  0  0
  1  2  1  0
  2  3  2  0
  3  4  1  0
  4  5  2  0
  5  6  1  0
  6  7  1  0
  7  8  1  0
  8  9  1  0
  9 10  1  0
 10 11  1  0
 11 12  1  0
 12 13  1  0
 13 14  1  0
 14 15  1  0
 15 16  1  0
 16 17  1  0
 17 18  1  0
  7 19  2  0
 19 20  1  0
 20 21  2  0
 21  2  1  0
 20  5  1  0
 18 12  1  0
M  END
>  <Compound_Key>  (1046) 
SYA013-D-29

>  <Ki>  (1046) 
7.9

>  <database>  (1046) 
NewLiterature

>  <Document_ChEMBL_ID>  (1046) 
10.1016/j.bmc.2022.117061

$$$$

     RDKit          2D

 22 24  0  0  0  0  0  0  0  0999 V2000
    3.2389   -3.9131    0.0000 O   0  0  0  0  0  0  0  0  0  0  0  0
    3.4957   -2.4353    0.0000 C   0  0  0  0  0  0  0  0  0  0  0  0
    4.8422   -1.7743    0.0000 O   0  0  0  0  0  0  0  0  0  0  0  0
    4.6297   -0.2894    0.0000 C   0  0  0  0  0  0  0  0  0  0  0  0
    5.5909    0.8621    0.0000 C   0  0  0  0  0  0  0  0  0  0  0  0
    5.0743    2.2703    0.0000 C   0  0  0  0  0  0  0  0  0  0  0  0
    3.5964    2.5270    0.0000 C   0  0  0  0  0  0  0  0  0  0  0  0
    3.0798    3.9353    0.0000 Cl  0  0  0  0  0  0  0  0  0  0  0  0
    2.6352    1.3755    0.0000 C   0  0  0  0  0  0  0  0  0  0  0  0
    3.1518   -0.0327    0.0000 C   0  0  0  0  0  0  0  0  0  0  0  0
    2.4509   -1.3589    0.0000 N   0  0  0  0  0  0  0  0  0  0  0  0
    0.9661   -1.5714    0.0000 C   0  0  0  0  0  0  0  0  0  0  0  0
    0.0396   -0.3918    0.0000 C   0  0  0  0  0  0  0  0  0  0  0  0
   -1.4453   -0.6043    0.0000 C   0  0  0  0  0  0  0  0  0  0  0  0
   -2.3718    0.5754    0.0000 C   0  0  0  0  0  0  0  0  0  0  0  0
   -3.8566    0.3628    0.0000 N   0  0  0  0  0  0  0  0  0  0  0  0
   -4.3094   -1.0672    0.0000 C   0  0  0  0  0  0  0  0  0  0  0  0
   -5.7098   -1.6048    0.0000 C   0  0  0  0  0  0  0  0  0  0  0  0
   -7.0032   -0.8452    0.0000 C   0  0  0  0  0  0  0  0  0  0  0  0
   -7.2157    0.6397    0.0000 C   0  0  0  0  0  0  0  0  0  0  0  0
   -6.1873    1.7317    0.0000 C   0  0  0  0  0  0  0  0  0  0  0  0
   -4.6924    1.6085    0.0000 C   0  0  0  0  0  0  0  0  0  0  0  0
  1  2  2  0
  2  3  1  0
  3  4  1  0
  4  5  2  0
  5  6  1  0
  6  7  2  0
  7  8  1  0
  7  9  1  0
  9 10  2  0
 10 11  1  0
 11 12  1  0
 12 13  1  0
 13 14  1  0
 14 15  1  0
 15 16  1  0
 16 17  1  0
 17 18  1  0
 18 19  1  0
 19 20  1  0
 20 21  1  0
 21 22  1  0
 11  2  1  0
 22 16  1  0
 10  4  1  0
M  END
>  <Compound_Key>  (1047) 
SYA013-D-30

>  <Ki>  (1047) 
3.8

>  <database>  (1047) 
NewLiterature

>  <Document_ChEMBL_ID>  (1047) 
10.1016/j.bmc.2022.117062

$$$$

     RDKit          2D

 22 24  0  0  0  0  0  0  0  0999 V2000
    3.2389   -3.9131    0.0000 O   0  0  0  0  0  0  0  0  0  0  0  0
    3.4957   -2.4353    0.0000 C   0  0  0  0  0  0  0  0  0  0  0  0
    4.8422   -1.7743    0.0000 S   0  0  0  0  0  0  0  0  0  0  0  0
    4.6297   -0.2894    0.0000 C   0  0  0  0  0  0  0  0  0  0  0  0
    5.5909    0.8621    0.0000 C   0  0  0  0  0  0  0  0  0  0  0  0
    5.0743    2.2703    0.0000 C   0  0  0  0  0  0  0  0  0  0  0  0
    3.5964    2.5270    0.0000 C   0  0  0  0  0  0  0  0  0  0  0  0
    3.0798    3.9353    0.0000 Cl  0  0  0  0  0  0  0  0  0  0  0  0
    2.6352    1.3755    0.0000 C   0  0  0  0  0  0  0  0  0  0  0  0
    3.1518   -0.0327    0.0000 C   0  0  0  0  0  0  0  0  0  0  0  0
    2.4509   -1.3589    0.0000 N   0  0  0  0  0  0  0  0  0  0  0  0
    0.9661   -1.5714    0.0000 C   0  0  0  0  0  0  0  0  0  0  0  0
    0.0396   -0.3918    0.0000 C   0  0  0  0  0  0  0  0  0  0  0  0
   -1.4453   -0.6043    0.0000 C   0  0  0  0  0  0  0  0  0  0  0  0
   -2.3718    0.5754    0.0000 C   0  0  0  0  0  0  0  0  0  0  0  0
   -3.8566    0.3628    0.0000 N   0  0  0  0  0  0  0  0  0  0  0  0
   -4.3094   -1.0672    0.0000 C   0  0  0  0  0  0  0  0  0  0  0  0
   -5.7098   -1.6048    0.0000 C   0  0  0  0  0  0  0  0  0  0  0  0
   -7.0032   -0.8452    0.0000 C   0  0  0  0  0  0  0  0  0  0  0  0
   -7.2157    0.6397    0.0000 C   0  0  0  0  0  0  0  0  0  0  0  0
   -6.1873    1.7317    0.0000 C   0  0  0  0  0  0  0  0  0  0  0  0
   -4.6924    1.6085    0.0000 C   0  0  0  0  0  0  0  0  0  0  0  0
  1  2  2  0
  2  3  1  0
  3  4  1  0
  4  5  2  0
  5  6  1  0
  6  7  2  0
  7  8  1  0
  7  9  1  0
  9 10  2  0
 10 11  1  0
 11 12  1  0
 12 13  1  0
 13 14  1  0
 14 15  1  0
 15 16  1  0
 16 17  1  0
 17 18  1  0
 18 19  1  0
 19 20  1  0
 20 21  1  0
 21 22  1  0
 11  2  1  0
 22 16  1  0
 10  4  1  0
M  END
>  <Compound_Key>  (1048) 
SYA013-D-31

>  <Ki>  (1048) 
7.61

>  <database>  (1048) 
NewLiterature

>  <Document_ChEMBL_ID>  (1048) 
10.1016/j.bmc.2022.117063

$$$$

     RDKit          2D

 27 30  0  0  0  0  0  0  0  0999 V2000
   -9.4439   -0.8282    0.0000 C   0  0  0  0  0  0  0  0  0  0  0  0
   -8.0074   -1.2600    0.0000 O   0  0  0  0  0  0  0  0  0  0  0  0
   -6.9152   -0.2320    0.0000 C   0  0  0  0  0  0  0  0  0  0  0  0
   -7.2594    1.2280    0.0000 C   0  0  0  0  0  0  0  0  0  0  0  0
   -6.1671    2.2561    0.0000 C   0  0  0  0  0  0  0  0  0  0  0  0
   -4.7306    1.8242    0.0000 C   0  0  0  0  0  0  0  0  0  0  0  0
   -4.3864    0.3642    0.0000 C   0  0  0  0  0  0  0  0  0  0  0  0
   -5.4787   -0.6638    0.0000 C   0  0  0  0  0  0  0  0  0  0  0  0
   -5.1345   -2.1238    0.0000 C   0  0  0  0  0  0  0  0  0  0  0  0
   -3.6980   -2.5557    0.0000 C   0  0  0  0  0  0  0  0  0  0  0  0
   -2.6057   -1.5276    0.0000 C   0  0  0  0  0  0  0  0  0  0  0  0
   -2.9500   -0.0676    0.0000 C   0  0  0  0  0  0  0  0  0  0  0  0
   -1.8577    0.9604    0.0000 C   0  0  0  0  0  0  0  0  0  0  0  0
   -0.4212    0.5286    0.0000 C   0  0  0  0  0  0  0  0  0  0  0  0
    0.6711    1.5566    0.0000 C   0  0  0  0  0  0  0  0  0  0  0  0
    2.1075    1.1248    0.0000 N   0  0  0  0  0  0  0  0  0  0  0  0
    2.4518   -0.3352    0.0000 C   0  0  0  0  0  0  0  0  0  0  0  0
    3.8882   -0.7671    0.0000 C   0  0  0  0  0  0  0  0  0  0  0  0
    4.9805    0.2610    0.0000 N   0  0  0  0  0  0  0  0  0  0  0  0
    6.4170   -0.1709    0.0000 C   0  0  0  0  0  0  0  0  0  0  0  0
    6.7612   -1.6309    0.0000 C   0  0  0  0  0  0  0  0  0  0  0  0
    8.1977   -2.0627    0.0000 C   0  0  0  0  0  0  0  0  0  0  0  0
    9.2899   -1.0347    0.0000 C   0  0  0  0  0  0  0  0  0  0  0  0
    8.9457    0.4253    0.0000 C   0  0  0  0  0  0  0  0  0  0  0  0
    7.5092    0.8572    0.0000 C   0  0  0  0  0  0  0  0  0  0  0  0
    4.6363    1.7210    0.0000 C   0  0  0  0  0  0  0  0  0  0  0  0
    3.1998    2.1528    0.0000 C   0  0  0  0  0  0  0  0  0  0  0  0
  1  2  1  0
  2  3  1  0
  3  4  2  0
  4  5  1  0
  5  6  2  0
  6  7  1  0
  7  8  2  0
  8  9  1  0
  9 10  1  0
 10 11  1  0
 11 12  1  0
 12 13  1  6
 13 14  1  0
 14 15  1  0
 15 16  1  0
 16 17  1  0
 17 18  1  0
 18 19  1  0
 19 20  1  0
 20 21  1  0
 21 22  1  0
 22 23  1  0
 23 24  1  0
 24 25  1  0
 19 26  1  0
 26 27  1  0
  8  3  1  0
 27 16  1  0
 12  7  1  0
 25 20  1  0
M  END
>  <Compound_Key>  (1049) 
(-)-R-PB28

>  <Ki>  (1049) 
0.49

>  <database>  (1049) 
NewLiterature

>  <Document_ChEMBL_ID>  (1049) 
10.1038/s41598-023-39662-w

$$$$

     RDKit          2D

 27 30  0  0  0  0  0  0  0  0999 V2000
   -9.4439   -0.8282    0.0000 C   0  0  0  0  0  0  0  0  0  0  0  0
   -8.0074   -1.2600    0.0000 O   0  0  0  0  0  0  0  0  0  0  0  0
   -6.9152   -0.2320    0.0000 C   0  0  0  0  0  0  0  0  0  0  0  0
   -7.2594    1.2280    0.0000 C   0  0  0  0  0  0  0  0  0  0  0  0
   -6.1671    2.2561    0.0000 C   0  0  0  0  0  0  0  0  0  0  0  0
   -4.7306    1.8242    0.0000 C   0  0  0  0  0  0  0  0  0  0  0  0
   -4.3864    0.3642    0.0000 C   0  0  0  0  0  0  0  0  0  0  0  0
   -5.4787   -0.6638    0.0000 C   0  0  0  0  0  0  0  0  0  0  0  0
   -5.1345   -2.1238    0.0000 C   0  0  0  0  0  0  0  0  0  0  0  0
   -3.6980   -2.5557    0.0000 C   0  0  0  0  0  0  0  0  0  0  0  0
   -2.6057   -1.5276    0.0000 C   0  0  0  0  0  0  0  0  0  0  0  0
   -2.9500   -0.0676    0.0000 C   0  0  0  0  0  0  0  0  0  0  0  0
   -1.8577    0.9604    0.0000 C   0  0  0  0  0  0  0  0  0  0  0  0
   -0.4212    0.5286    0.0000 C   0  0  0  0  0  0  0  0  0  0  0  0
    0.6711    1.5566    0.0000 C   0  0  0  0  0  0  0  0  0  0  0  0
    2.1075    1.1248    0.0000 N   0  0  0  0  0  0  0  0  0  0  0  0
    2.4518   -0.3352    0.0000 C   0  0  0  0  0  0  0  0  0  0  0  0
    3.8882   -0.7671    0.0000 C   0  0  0  0  0  0  0  0  0  0  0  0
    4.9805    0.2610    0.0000 N   0  0  0  0  0  0  0  0  0  0  0  0
    6.4170   -0.1709    0.0000 C   0  0  0  0  0  0  0  0  0  0  0  0
    6.7612   -1.6309    0.0000 C   0  0  0  0  0  0  0  0  0  0  0  0
    8.1977   -2.0627    0.0000 C   0  0  0  0  0  0  0  0  0  0  0  0
    9.2899   -1.0347    0.0000 C   0  0  0  0  0  0  0  0  0  0  0  0
    8.9457    0.4253    0.0000 C   0  0  0  0  0  0  0  0  0  0  0  0
    7.5092    0.8572    0.0000 C   0  0  0  0  0  0  0  0  0  0  0  0
    4.6363    1.7210    0.0000 C   0  0  0  0  0  0  0  0  0  0  0  0
    3.1998    2.1528    0.0000 C   0  0  0  0  0  0  0  0  0  0  0  0
  1  2  1  0
  2  3  1  0
  3  4  2  0
  4  5  1  0
  5  6  2  0
  6  7  1  0
  7  8  2  0
  8  9  1  0
  9 10  1  0
 10 11  1  0
 11 12  1  0
 12 13  1  1
 13 14  1  0
 14 15  1  0
 15 16  1  0
 16 17  1  0
 17 18  1  0
 18 19  1  0
 19 20  1  0
 20 21  1  0
 21 22  1  0
 22 23  1  0
 23 24  1  0
 24 25  1  0
 19 26  1  0
 26 27  1  0
  8  3  1  0
 27 16  1  0
 12  7  1  0
 25 20  1  0
M  END
>  <Compound_Key>  (1050) 
(+)-S-PB28

>  <Ki>  (1050) 
1.18

>  <database>  (1050) 
NewLiterature

>  <Document_ChEMBL_ID>  (1050) 
10.1038/s41598-023-39663-w

$$$$

     RDKit          2D

 24 27  0  0  0  0  0  0  0  0999 V2000
   -7.3478    1.5380    0.0000 C   0  0  0  0  0  0  0  0  0  0  0  0
   -6.3355    0.4311    0.0000 O   0  0  0  0  0  0  0  0  0  0  0  0
   -4.8707    0.7543    0.0000 C   0  0  0  0  0  0  0  0  0  0  0  0
   -4.4183    2.1845    0.0000 C   0  0  0  0  0  0  0  0  0  0  0  0
   -2.9535    2.5077    0.0000 C   0  0  0  0  0  0  0  0  0  0  0  0
   -1.9412    1.4008    0.0000 C   0  0  0  0  0  0  0  0  0  0  0  0
   -2.3937   -0.0293    0.0000 C   0  0  0  0  0  0  0  0  0  0  0  0
   -3.8584   -0.3526    0.0000 C   0  0  0  0  0  0  0  0  0  0  0  0
   -4.3109   -1.7827    0.0000 C   0  0  0  0  0  0  0  0  0  0  0  0
   -3.2986   -2.8896    0.0000 C   0  0  0  0  0  0  0  0  0  0  0  0
   -1.8338   -2.5664    0.0000 C   0  0  0  0  0  0  0  0  0  0  0  0
   -1.3814   -1.1363    0.0000 C   0  0  0  0  0  0  0  0  0  0  0  0
    0.0834   -0.8130    0.0000 N   0  0  0  0  0  0  0  0  0  0  0  0
    1.0957   -1.9199    0.0000 C   0  0  0  0  0  0  0  0  0  0  0  0
    2.5605   -1.5967    0.0000 C   0  0  0  0  0  0  0  0  0  0  0  0
    3.0129   -0.1666    0.0000 N   0  0  0  0  0  0  0  0  0  0  0  0
    4.4777    0.1567    0.0000 C   0  0  0  0  0  0  0  0  0  0  0  0
    5.4900   -0.9502    0.0000 C   0  0  0  0  0  0  0  0  0  0  0  0
    6.9548   -0.6270    0.0000 C   0  0  0  0  0  0  0  0  0  0  0  0
    7.4072    0.8031    0.0000 C   0  0  0  0  0  0  0  0  0  0  0  0
    6.3949    1.9100    0.0000 C   0  0  0  0  0  0  0  0  0  0  0  0
    4.9301    1.5868    0.0000 C   0  0  0  0  0  0  0  0  0  0  0  0
    2.0006    0.9403    0.0000 C   0  0  0  0  0  0  0  0  0  0  0  0
    0.5359    0.6171    0.0000 C   0  0  0  0  0  0  0  0  0  0  0  0
  1  2  1  0
  2  3  1  0
  3  4  2  0
  4  5  1  0
  5  6  2  0
  6  7  1  0
  7  8  2  0
  8  9  1  0
  9 10  1  0
 10 11  1  0
 11 12  1  0
 12 13  1  0
 13 14  1  0
 14 15  1  0
 15 16  1  0
 16 17  1  0
 17 18  1  0
 18 19  1  0
 19 20  1  0
 20 21  1  0
 21 22  1  0
 16 23  1  0
 23 24  1  0
  8  3  1  0
 24 13  1  0
 12  7  1  0
 22 17  1  0
M  END
>  <Compound_Key>  (1051) 
1

>  <Ki>  (1051) 
7.9

>  <database>  (1051) 
NewLiterature

>  <Document_ChEMBL_ID>  (1051) 
10.1038/s41598-023-39664-w

$$$$

     RDKit          2D

 25 28  0  0  0  0  0  0  0  0999 V2000
   -8.1700   -1.0158    0.0000 C   0  0  0  0  0  0  0  0  0  0  0  0
   -6.7075   -1.3491    0.0000 O   0  0  0  0  0  0  0  0  0  0  0  0
   -5.6876   -0.2492    0.0000 C   0  0  0  0  0  0  0  0  0  0  0  0
   -6.1302    1.1840    0.0000 C   0  0  0  0  0  0  0  0  0  0  0  0
   -5.1103    2.2839    0.0000 C   0  0  0  0  0  0  0  0  0  0  0  0
   -3.6478    1.9505    0.0000 C   0  0  0  0  0  0  0  0  0  0  0  0
   -3.2052    0.5173    0.0000 C   0  0  0  0  0  0  0  0  0  0  0  0
   -4.2251   -0.5826    0.0000 C   0  0  0  0  0  0  0  0  0  0  0  0
   -3.7825   -2.0158    0.0000 C   0  0  0  0  0  0  0  0  0  0  0  0
   -2.3200   -2.3491    0.0000 C   0  0  0  0  0  0  0  0  0  0  0  0
   -1.3001   -1.2492    0.0000 C   0  0  0  0  0  0  0  0  0  0  0  0
   -1.7427    0.1840    0.0000 C   0  0  0  0  0  0  0  0  0  0  0  0
   -0.7228    1.2839    0.0000 C   0  0  0  0  0  0  0  0  0  0  0  0
    0.7397    0.9506    0.0000 N   0  0  0  0  0  0  0  0  0  0  0  0
    1.1823   -0.4826    0.0000 C   0  0  0  0  0  0  0  0  0  0  0  0
    2.6448   -0.8160    0.0000 C   0  0  0  0  0  0  0  0  0  0  0  0
    3.6647    0.2839    0.0000 N   0  0  0  0  0  0  0  0  0  0  0  0
    5.1272   -0.0494    0.0000 C   0  0  0  0  0  0  0  0  0  0  0  0
    5.5698   -1.4826    0.0000 C   0  0  0  0  0  0  0  0  0  0  0  0
    7.0323   -1.8159    0.0000 C   0  0  0  0  0  0  0  0  0  0  0  0
    8.0522   -0.7160    0.0000 C   0  0  0  0  0  0  0  0  0  0  0  0
    7.6096    0.7172    0.0000 C   0  0  0  0  0  0  0  0  0  0  0  0
    6.1471    1.0505    0.0000 C   0  0  0  0  0  0  0  0  0  0  0  0
    3.2221    1.7172    0.0000 C   0  0  0  0  0  0  0  0  0  0  0  0
    1.7596    2.0505    0.0000 C   0  0  0  0  0  0  0  0  0  0  0  0
  1  2  1  0
  2  3  1  0
  3  4  2  0
  4  5  1  0
  5  6  2  0
  6  7  1  0
  7  8  2  0
  8  9  1  0
  9 10  1  0
 10 11  1  0
 11 12  1  0
 12 13  1  0
 13 14  1  0
 14 15  1  0
 15 16  1  0
 16 17  1  0
 17 18  1  0
 18 19  1  0
 19 20  1  0
 20 21  1  0
 21 22  1  0
 22 23  1  0
 17 24  1  0
 24 25  1  0
  8  3  1  0
 25 14  1  0
 12  7  1  0
 23 18  1  0
M  END
>  <Compound_Key>  (1052) 
2

>  <Ki>  (1052) 
16.4

>  <database>  (1052) 
NewLiterature

>  <Document_ChEMBL_ID>  (1052) 
10.1038/s41598-023-39665-w

$$$$

     RDKit          2D

 26 29  0  0  0  0  0  0  0  0999 V2000
   -8.6574    1.3927    0.0000 C   0  0  0  0  0  0  0  0  0  0  0  0
   -7.5689    0.3605    0.0000 O   0  0  0  0  0  0  0  0  0  0  0  0
   -6.1308    0.7871    0.0000 C   0  0  0  0  0  0  0  0  0  0  0  0
   -5.7812    2.2458    0.0000 C   0  0  0  0  0  0  0  0  0  0  0  0
   -4.3432    2.6724    0.0000 C   0  0  0  0  0  0  0  0  0  0  0  0
   -3.2547    1.6403    0.0000 C   0  0  0  0  0  0  0  0  0  0  0  0
   -3.6043    0.1816    0.0000 C   0  0  0  0  0  0  0  0  0  0  0  0
   -5.0424   -0.2450    0.0000 C   0  0  0  0  0  0  0  0  0  0  0  0
   -5.3920   -1.7037    0.0000 C   0  0  0  0  0  0  0  0  0  0  0  0
   -4.3035   -2.7358    0.0000 C   0  0  0  0  0  0  0  0  0  0  0  0
   -2.8655   -2.3092    0.0000 C   0  0  0  0  0  0  0  0  0  0  0  0
   -2.5159   -0.8505    0.0000 C   0  0  0  0  0  0  0  0  0  0  0  0
   -1.0778   -0.4239    0.0000 C   0  0  0  0  0  0  0  0  0  0  0  0
    0.0107   -1.4560    0.0000 C   0  0  0  0  0  0  0  0  0  0  0  0
    1.4487   -1.0295    0.0000 N   0  0  0  0  0  0  0  0  0  0  0  0
    2.5372   -2.0616    0.0000 C   0  0  0  0  0  0  0  0  0  0  0  0
    3.9753   -1.6350    0.0000 C   0  0  0  0  0  0  0  0  0  0  0  0
    4.3249   -0.1763    0.0000 N   0  0  0  0  0  0  0  0  0  0  0  0
    5.7629    0.2503    0.0000 C   0  0  0  0  0  0  0  0  0  0  0  0
    6.8514   -0.7818    0.0000 C   0  0  0  0  0  0  0  0  0  0  0  0
    8.2895   -0.3553    0.0000 C   0  0  0  0  0  0  0  0  0  0  0  0
    8.6391    1.1034    0.0000 C   0  0  0  0  0  0  0  0  0  0  0  0
    7.5506    2.1355    0.0000 C   0  0  0  0  0  0  0  0  0  0  0  0
    6.1125    1.7090    0.0000 C   0  0  0  0  0  0  0  0  0  0  0  0
    3.2364    0.8558    0.0000 C   0  0  0  0  0  0  0  0  0  0  0  0
    1.7983    0.4292    0.0000 C   0  0  0  0  0  0  0  0  0  0  0  0
  1  2  1  0
  2  3  1  0
  3  4  2  0
  4  5  1  0
  5  6  2  0
  6  7  1  0
  7  8  2  0
  8  9  1  0
  9 10  1  0
 10 11  1  0
 11 12  1  0
 12 13  1  0
 13 14  1  0
 14 15  1  0
 15 16  1  0
 16 17  1  0
 17 18  1  0
 18 19  1  0
 19 20  1  0
 20 21  1  0
 21 22  1  0
 22 23  1  0
 23 24  1  0
 18 25  1  0
 25 26  1  0
  8  3  1  0
 26 15  1  0
 12  7  1  0
 24 19  1  0
M  END
>  <Compound_Key>  (1053) 
3

>  <Ki>  (1053) 
21.1

>  <database>  (1053) 
NewLiterature

>  <Document_ChEMBL_ID>  (1053) 
10.1038/s41598-023-39666-w

$$$$

     RDKit          2D

 28 31  0  0  0  0  0  0  0  0999 V2000
   -9.9555    1.2876    0.0000 C   0  0  0  0  0  0  0  0  0  0  0  0
   -8.8189    0.3087    0.0000 O   0  0  0  0  0  0  0  0  0  0  0  0
   -7.4029    0.8036    0.0000 C   0  0  0  0  0  0  0  0  0  0  0  0
   -7.1235    2.2774    0.0000 C   0  0  0  0  0  0  0  0  0  0  0  0
   -5.7075    2.7723    0.0000 C   0  0  0  0  0  0  0  0  0  0  0  0
   -4.5709    1.7935    0.0000 C   0  0  0  0  0  0  0  0  0  0  0  0
   -4.8503    0.3197    0.0000 C   0  0  0  0  0  0  0  0  0  0  0  0
   -6.2663   -0.1752    0.0000 C   0  0  0  0  0  0  0  0  0  0  0  0
   -6.5457   -1.6489    0.0000 C   0  0  0  0  0  0  0  0  0  0  0  0
   -5.4091   -2.6278    0.0000 C   0  0  0  0  0  0  0  0  0  0  0  0
   -3.9931   -2.1329    0.0000 C   0  0  0  0  0  0  0  0  0  0  0  0
   -3.7137   -0.6591    0.0000 C   0  0  0  0  0  0  0  0  0  0  0  0
   -2.2977   -0.1642    0.0000 C   0  0  0  0  0  0  0  0  0  0  0  0
   -1.1611   -1.1430    0.0000 C   0  0  0  0  0  0  0  0  0  0  0  0
    0.2549   -0.6481    0.0000 C   0  0  0  0  0  0  0  0  0  0  0  0
    1.3915   -1.6269    0.0000 C   0  0  0  0  0  0  0  0  0  0  0  0
    2.8075   -1.1320    0.0000 N   0  0  0  0  0  0  0  0  0  0  0  0
    3.9441   -2.1109    0.0000 C   0  0  0  0  0  0  0  0  0  0  0  0
    5.3601   -1.6159    0.0000 C   0  0  0  0  0  0  0  0  0  0  0  0
    5.6395   -0.1422    0.0000 N   0  0  0  0  0  0  0  0  0  0  0  0
    7.0555    0.3527    0.0000 C   0  0  0  0  0  0  0  0  0  0  0  0
    8.1921   -0.6261    0.0000 C   0  0  0  0  0  0  0  0  0  0  0  0
    9.6081   -0.1312    0.0000 C   0  0  0  0  0  0  0  0  0  0  0  0
    9.8875    1.3426    0.0000 C   0  0  0  0  0  0  0  0  0  0  0  0
    8.7509    2.3214    0.0000 C   0  0  0  0  0  0  0  0  0  0  0  0
    7.3349    1.8265    0.0000 C   0  0  0  0  0  0  0  0  0  0  0  0
    4.5029    0.8366    0.0000 C   0  0  0  0  0  0  0  0  0  0  0  0
    3.0869    0.3417    0.0000 C   0  0  0  0  0  0  0  0  0  0  0  0
  1  2  1  0
  2  3  1  0
  3  4  2  0
  4  5  1  0
  5  6  2  0
  6  7  1  0
  7  8  2  0
  8  9  1  0
  9 10  1  0
 10 11  1  0
 11 12  1  0
 12 13  1  0
 13 14  1  0
 14 15  1  0
 15 16  1  0
 16 17  1  0
 17 18  1  0
 18 19  1  0
 19 20  1  0
 20 21  1  0
 21 22  1  0
 22 23  1  0
 23 24  1  0
 24 25  1  0
 25 26  1  0
 20 27  1  0
 27 28  1  0
  8  3  1  0
 28 17  1  0
 12  7  1  0
 26 21  1  0
M  END
>  <Compound_Key>  (1054) 
4

>  <Ki>  (1054) 
3.58

>  <database>  (1054) 
NewLiterature

>  <Document_ChEMBL_ID>  (1054) 
10.1038/s41598-023-39667-w

$$$$

     RDKit          2D

 29 32  0  0  0  0  0  0  0  0999 V2000
  -10.7169   -0.6925    0.0000 C   0  0  0  0  0  0  0  0  0  0  0  0
   -9.3019   -1.1904    0.0000 O   0  0  0  0  0  0  0  0  0  0  0  0
   -8.1632   -0.2140    0.0000 C   0  0  0  0  0  0  0  0  0  0  0  0
   -8.4395    1.2603    0.0000 C   0  0  0  0  0  0  0  0  0  0  0  0
   -7.3008    2.2368    0.0000 C   0  0  0  0  0  0  0  0  0  0  0  0
   -5.8858    1.7388    0.0000 C   0  0  0  0  0  0  0  0  0  0  0  0
   -5.6096    0.2645    0.0000 C   0  0  0  0  0  0  0  0  0  0  0  0
   -6.7483   -0.7119    0.0000 C   0  0  0  0  0  0  0  0  0  0  0  0
   -6.4720   -2.1863    0.0000 C   0  0  0  0  0  0  0  0  0  0  0  0
   -5.0571   -2.6842    0.0000 C   0  0  0  0  0  0  0  0  0  0  0  0
   -3.9184   -1.7078    0.0000 C   0  0  0  0  0  0  0  0  0  0  0  0
   -4.1946   -0.2334    0.0000 C   0  0  0  0  0  0  0  0  0  0  0  0
   -3.0560    0.7430    0.0000 C   0  0  0  0  0  0  0  0  0  0  0  0
   -1.6410    0.2451    0.0000 C   0  0  0  0  0  0  0  0  0  0  0  0
   -0.5023    1.2215    0.0000 C   0  0  0  0  0  0  0  0  0  0  0  0
    0.9126    0.7236    0.0000 C   0  0  0  0  0  0  0  0  0  0  0  0
    2.0513    1.7000    0.0000 C   0  0  0  0  0  0  0  0  0  0  0  0
    3.4663    1.2021    0.0000 N   0  0  0  0  0  0  0  0  0  0  0  0
    3.7425   -0.2723    0.0000 C   0  0  0  0  0  0  0  0  0  0  0  0
    5.1575   -0.7702    0.0000 C   0  0  0  0  0  0  0  0  0  0  0  0
    6.2961    0.2062    0.0000 N   0  0  0  0  0  0  0  0  0  0  0  0
    7.7111   -0.2917    0.0000 C   0  0  0  0  0  0  0  0  0  0  0  0
    7.9874   -1.7661    0.0000 C   0  0  0  0  0  0  0  0  0  0  0  0
    9.4023   -2.2640    0.0000 C   0  0  0  0  0  0  0  0  0  0  0  0
   10.5410   -1.2876    0.0000 C   0  0  0  0  0  0  0  0  0  0  0  0
   10.2647    0.1868    0.0000 C   0  0  0  0  0  0  0  0  0  0  0  0
    8.8498    0.6847    0.0000 C   0  0  0  0  0  0  0  0  0  0  0  0
    6.0199    1.6805    0.0000 C   0  0  0  0  0  0  0  0  0  0  0  0
    4.6049    2.1785    0.0000 C   0  0  0  0  0  0  0  0  0  0  0  0
  1  2  1  0
  2  3  1  0
  3  4  2  0
  4  5  1  0
  5  6  2  0
  6  7  1  0
  7  8  2  0
  8  9  1  0
  9 10  1  0
 10 11  1  0
 11 12  1  0
 12 13  1  0
 13 14  1  0
 14 15  1  0
 15 16  1  0
 16 17  1  0
 17 18  1  0
 18 19  1  0
 19 20  1  0
 20 21  1  0
 21 22  1  0
 22 23  1  0
 23 24  1  0
 24 25  1  0
 25 26  1  0
 26 27  1  0
 21 28  1  0
 28 29  1  0
  8  3  1  0
 29 18  1  0
 12  7  1  0
 27 22  1  0
M  END
>  <Compound_Key>  (1055) 
5

>  <Ki>  (1055) 
0.35

>  <database>  (1055) 
NewLiterature

>  <Document_ChEMBL_ID>  (1055) 
10.1038/s41598-023-39668-w

$$$$

     RDKit          2D

 30 33  0  0  0  0  0  0  0  0999 V2000
  -11.2489    1.2107    0.0000 C   0  0  0  0  0  0  0  0  0  0  0  0
  -10.0799    0.2707    0.0000 O   0  0  0  0  0  0  0  0  0  0  0  0
   -8.6814    0.8131    0.0000 C   0  0  0  0  0  0  0  0  0  0  0  0
   -8.4518    2.2954    0.0000 C   0  0  0  0  0  0  0  0  0  0  0  0
   -7.0533    2.8378    0.0000 C   0  0  0  0  0  0  0  0  0  0  0  0
   -5.8844    1.8979    0.0000 C   0  0  0  0  0  0  0  0  0  0  0  0
   -6.1139    0.4155    0.0000 C   0  0  0  0  0  0  0  0  0  0  0  0
   -7.5124   -0.1268    0.0000 C   0  0  0  0  0  0  0  0  0  0  0  0
   -7.7420   -1.6092    0.0000 C   0  0  0  0  0  0  0  0  0  0  0  0
   -6.5730   -2.5491    0.0000 C   0  0  0  0  0  0  0  0  0  0  0  0
   -5.1745   -2.0068    0.0000 C   0  0  0  0  0  0  0  0  0  0  0  0
   -4.9449   -0.5244    0.0000 C   0  0  0  0  0  0  0  0  0  0  0  0
   -3.5464    0.0179    0.0000 C   0  0  0  0  0  0  0  0  0  0  0  0
   -2.3775   -0.9220    0.0000 C   0  0  0  0  0  0  0  0  0  0  0  0
   -0.9790   -0.3797    0.0000 C   0  0  0  0  0  0  0  0  0  0  0  0
    0.1900   -1.3196    0.0000 C   0  0  0  0  0  0  0  0  0  0  0  0
    1.5885   -0.7773    0.0000 C   0  0  0  0  0  0  0  0  0  0  0  0
    2.7575   -1.7172    0.0000 C   0  0  0  0  0  0  0  0  0  0  0  0
    4.1560   -1.1748    0.0000 N   0  0  0  0  0  0  0  0  0  0  0  0
    5.3250   -2.1148    0.0000 C   0  0  0  0  0  0  0  0  0  0  0  0
    6.7235   -1.5724    0.0000 C   0  0  0  0  0  0  0  0  0  0  0  0
    6.9530   -0.0901    0.0000 N   0  0  0  0  0  0  0  0  0  0  0  0
    8.3515    0.4523    0.0000 C   0  0  0  0  0  0  0  0  0  0  0  0
    9.5205   -0.4877    0.0000 C   0  0  0  0  0  0  0  0  0  0  0  0
   10.9190    0.0547    0.0000 C   0  0  0  0  0  0  0  0  0  0  0  0
   11.1485    1.5370    0.0000 C   0  0  0  0  0  0  0  0  0  0  0  0
    9.9796    2.4770    0.0000 C   0  0  0  0  0  0  0  0  0  0  0  0
    8.5811    1.9346    0.0000 C   0  0  0  0  0  0  0  0  0  0  0  0
    5.7841    0.8499    0.0000 C   0  0  0  0  0  0  0  0  0  0  0  0
    4.3855    0.3075    0.0000 C   0  0  0  0  0  0  0  0  0  0  0  0
  1  2  1  0
  2  3  1  0
  3  4  2  0
  4  5  1  0
  5  6  2  0
  6  7  1  0
  7  8  2  0
  8  9  1  0
  9 10  1  0
 10 11  1  0
 11 12  1  0
 12 13  1  0
 13 14  1  0
 14 15  1  0
 15 16  1  0
 16 17  1  0
 17 18  1  0
 18 19  1  0
 19 20  1  0
 20 21  1  0
 21 22  1  0
 22 23  1  0
 23 24  1  0
 24 25  1  0
 25 26  1  0
 26 27  1  0
 27 28  1  0
 22 29  1  0
 29 30  1  0
  8  3  1  0
 30 19  1  0
 12  7  1  0
 28 23  1  0
M  END
>  <Compound_Key>  (1056) 
6

>  <Ki>  (1056) 
103.0

>  <database>  (1056) 
NewLiterature

>  <Document_ChEMBL_ID>  (1056) 
10.1038/s41598-023-39669-w

$$$$

     RDKit          2D

 25 28  0  0  0  0  0  0  0  0999 V2000
    7.9872   -0.9145    0.0000 C   0  0  0  0  0  0  0  0  0  0  0  0
    6.9250   -1.9736    0.0000 C   0  0  0  0  0  0  0  0  0  0  0  0
    5.4767   -1.5834    0.0000 C   0  0  0  0  0  0  0  0  0  0  0  0
    5.0905   -0.1339    0.0000 C   0  0  0  0  0  0  0  0  0  0  0  0
    6.1526    0.9252    0.0000 C   0  0  0  0  0  0  0  0  0  0  0  0
    7.6010    0.5350    0.0000 C   0  0  0  0  0  0  0  0  0  0  0  0
    5.7664    2.3747    0.0000 C   0  0  0  0  0  0  0  0  0  0  0  0
    4.3181    2.7649    0.0000 C   0  0  0  0  0  0  0  0  0  0  0  0
    3.2559    1.7058    0.0000 C   0  0  0  0  0  0  0  0  0  0  0  0
    3.6421    0.2563    0.0000 C   0  0  0  0  0  0  0  0  0  0  0  0
    2.5800   -0.8028    0.0000 C   0  0  0  0  0  0  0  0  0  0  0  0
    1.1316   -0.4126    0.0000 C   0  0  0  0  0  0  0  0  0  0  0  0
    0.0695   -1.4717    0.0000 C   0  0  0  0  0  0  0  0  0  0  0  0
   -1.3789   -1.0815    0.0000 N   0  0  0  0  0  0  0  0  0  0  0  0
   -1.7650    0.3680    0.0000 C   0  0  0  0  0  0  0  0  0  0  0  0
   -3.2134    0.7582    0.0000 C   0  0  0  0  0  0  0  0  0  0  0  0
   -4.2755   -0.3009    0.0000 N   0  0  0  0  0  0  0  0  0  0  0  0
   -5.7239    0.0893    0.0000 C   0  0  0  0  0  0  0  0  0  0  0  0
   -6.1101    1.5388    0.0000 C   0  0  0  0  0  0  0  0  0  0  0  0
   -7.5584    1.9290    0.0000 C   0  0  0  0  0  0  0  0  0  0  0  0
   -8.6206    0.8699    0.0000 C   0  0  0  0  0  0  0  0  0  0  0  0
   -8.2344   -0.5796    0.0000 C   0  0  0  0  0  0  0  0  0  0  0  0
   -6.7860   -0.9698    0.0000 C   0  0  0  0  0  0  0  0  0  0  0  0
   -3.8894   -1.7504    0.0000 C   0  0  0  0  0  0  0  0  0  0  0  0
   -2.4410   -2.1406    0.0000 C   0  0  0  0  0  0  0  0  0  0  0  0
  1  2  2  0
  2  3  1  0
  3  4  2  0
  4  5  1  0
  5  6  2  0
  5  7  1  0
  7  8  1  0
  8  9  1  0
  9 10  1  0
 10 11  1  0
 11 12  1  0
 12 13  1  0
 13 14  1  0
 14 15  1  0
 15 16  1  0
 16 17  1  0
 17 18  1  0
 18 19  1  0
 19 20  1  0
 20 21  1  0
 21 22  1  0
 22 23  1  0
 17 24  1  0
 24 25  1  0
  6  1  1  0
 25 14  1  0
 10  4  1  0
 23 18  1  0
M  END
>  <Compound_Key>  (1057) 
7

>  <Ki>  (1057) 
0.68

>  <database>  (1057) 
NewLiterature

>  <Document_ChEMBL_ID>  (1057) 
10.1038/s41598-023-39670-w

$$$$

     RDKit          2D

 26 29  0  0  0  0  0  0  0  0999 V2000
    7.7960   -2.4991    0.0000 C   0  0  0  0  0  0  0  0  0  0  0  0
    6.3702   -2.9649    0.0000 C   0  0  0  0  0  0  0  0  0  0  0  0
    5.2539   -1.9630    0.0000 C   0  0  0  0  0  0  0  0  0  0  0  0
    5.5634   -0.4953    0.0000 C   0  0  0  0  0  0  0  0  0  0  0  0
    6.9893   -0.0295    0.0000 C   0  0  0  0  0  0  0  0  0  0  0  0
    8.1056   -1.0314    0.0000 C   0  0  0  0  0  0  0  0  0  0  0  0
    7.2988    1.4382    0.0000 C   0  0  0  0  0  0  0  0  0  0  0  0
    6.1825    2.4402    0.0000 C   0  0  0  0  0  0  0  0  0  0  0  0
    4.7567    1.9744    0.0000 C   0  0  0  0  0  0  0  0  0  0  0  0
    4.4471    0.5067    0.0000 C   0  0  0  0  0  0  0  0  0  0  0  0
    3.0213    0.0409    0.0000 C   0  0  0  0  0  0  0  0  0  0  0  0
    1.9050    1.0428    0.0000 C   0  0  0  0  0  0  0  0  0  0  0  0
    0.4791    0.5770    0.0000 C   0  0  0  0  0  0  0  0  0  0  0  0
   -0.6372    1.5789    0.0000 C   0  0  0  0  0  0  0  0  0  0  0  0
   -2.0630    1.1132    0.0000 N   0  0  0  0  0  0  0  0  0  0  0  0
   -3.1793    2.1151    0.0000 C   0  0  0  0  0  0  0  0  0  0  0  0
   -4.6052    1.6493    0.0000 C   0  0  0  0  0  0  0  0  0  0  0  0
   -4.9147    0.1816    0.0000 N   0  0  0  0  0  0  0  0  0  0  0  0
   -6.3406   -0.2842    0.0000 C   0  0  0  0  0  0  0  0  0  0  0  0
   -7.4569    0.7177    0.0000 C   0  0  0  0  0  0  0  0  0  0  0  0
   -8.8827    0.2519    0.0000 C   0  0  0  0  0  0  0  0  0  0  0  0
   -9.1923   -1.2158    0.0000 C   0  0  0  0  0  0  0  0  0  0  0  0
   -8.0760   -2.2177    0.0000 C   0  0  0  0  0  0  0  0  0  0  0  0
   -6.6501   -1.7519    0.0000 C   0  0  0  0  0  0  0  0  0  0  0  0
   -3.7984   -0.8203    0.0000 C   0  0  0  0  0  0  0  0  0  0  0  0
   -2.3726   -0.3546    0.0000 C   0  0  0  0  0  0  0  0  0  0  0  0
  1  2  2  0
  2  3  1  0
  3  4  2  0
  4  5  1  0
  5  6  2  0
  5  7  1  0
  7  8  1  0
  8  9  1  0
  9 10  1  0
 10 11  1  0
 11 12  1  0
 12 13  1  0
 13 14  1  0
 14 15  1  0
 15 16  1  0
 16 17  1  0
 17 18  1  0
 18 19  1  0
 19 20  1  0
 20 21  1  0
 21 22  1  0
 22 23  1  0
 23 24  1  0
 18 25  1  0
 25 26  1  0
  6  1  1  0
 26 15  1  0
 10  4  1  0
 24 19  1  0
M  END
>  <Compound_Key>  (1058) 
8

>  <Ki>  (1058) 
14.6

>  <database>  (1058) 
NewLiterature

>  <Document_ChEMBL_ID>  (1058) 
10.1038/s41598-023-39671-w

$$$$

     RDKit          2D

 27 30  0  0  0  0  0  0  0  0999 V2000
    9.2026   -1.0099    0.0000 C   0  0  0  0  0  0  0  0  0  0  0  0
    8.0833   -2.0085    0.0000 C   0  0  0  0  0  0  0  0  0  0  0  0
    6.6588   -1.5385    0.0000 C   0  0  0  0  0  0  0  0  0  0  0  0
    6.3536   -0.0699    0.0000 C   0  0  0  0  0  0  0  0  0  0  0  0
    7.4729    0.9288    0.0000 C   0  0  0  0  0  0  0  0  0  0  0  0
    8.8974    0.4588    0.0000 C   0  0  0  0  0  0  0  0  0  0  0  0
    7.1677    2.3974    0.0000 C   0  0  0  0  0  0  0  0  0  0  0  0
    5.7432    2.8674    0.0000 C   0  0  0  0  0  0  0  0  0  0  0  0
    4.6240    1.8688    0.0000 C   0  0  0  0  0  0  0  0  0  0  0  0
    4.9292    0.4002    0.0000 C   0  0  0  0  0  0  0  0  0  0  0  0
    3.8099   -0.5985    0.0000 C   0  0  0  0  0  0  0  0  0  0  0  0
    2.3854   -0.1285    0.0000 C   0  0  0  0  0  0  0  0  0  0  0  0
    1.2662   -1.1271    0.0000 C   0  0  0  0  0  0  0  0  0  0  0  0
   -0.1583   -0.6571    0.0000 C   0  0  0  0  0  0  0  0  0  0  0  0
   -1.2776   -1.6557    0.0000 C   0  0  0  0  0  0  0  0  0  0  0  0
   -2.7020   -1.1857    0.0000 N   0  0  0  0  0  0  0  0  0  0  0  0
   -3.0072    0.2830    0.0000 C   0  0  0  0  0  0  0  0  0  0  0  0
   -4.4317    0.7530    0.0000 C   0  0  0  0  0  0  0  0  0  0  0  0
   -5.5510   -0.2457    0.0000 N   0  0  0  0  0  0  0  0  0  0  0  0
   -6.9754    0.2244    0.0000 C   0  0  0  0  0  0  0  0  0  0  0  0
   -7.2806    1.6930    0.0000 C   0  0  0  0  0  0  0  0  0  0  0  0
   -8.7051    2.1630    0.0000 C   0  0  0  0  0  0  0  0  0  0  0  0
   -9.8243    1.1644    0.0000 C   0  0  0  0  0  0  0  0  0  0  0  0
   -9.5192   -0.3043    0.0000 C   0  0  0  0  0  0  0  0  0  0  0  0
   -8.0947   -0.7743    0.0000 C   0  0  0  0  0  0  0  0  0  0  0  0
   -5.2458   -1.7143    0.0000 C   0  0  0  0  0  0  0  0  0  0  0  0
   -3.8213   -2.1843    0.0000 C   0  0  0  0  0  0  0  0  0  0  0  0
  1  2  2  0
  2  3  1  0
  3  4  2  0
  4  5  1  0
  5  6  2  0
  5  7  1  0
  7  8  1  0
  8  9  1  0
  9 10  1  0
 10 11  1  0
 11 12  1  0
 12 13  1  0
 13 14  1  0
 14 15  1  0
 15 16  1  0
 16 17  1  0
 17 18  1  0
 18 19  1  0
 19 20  1  0
 20 21  1  0
 21 22  1  0
 22 23  1  0
 23 24  1  0
 24 25  1  0
 19 26  1  0
 26 27  1  0
  6  1  1  0
 27 16  1  0
 10  4  1  0
 25 20  1  0
M  END
>  <Compound_Key>  (1059) 
9

>  <Ki>  (1059) 
7.85

>  <database>  (1059) 
NewLiterature

>  <Document_ChEMBL_ID>  (1059) 
10.1038/s41598-023-39672-w

$$$$

     RDKit          2D

 27 30  0  0  0  0  0  0  0  0999 V2000
    9.2132   -2.2046    0.0000 C   0  0  0  0  0  0  0  0  0  0  0  0
    8.7643   -0.7734    0.0000 O   0  0  0  0  0  0  0  0  0  0  0  0
    7.3003   -0.4466    0.0000 C   0  0  0  0  0  0  0  0  0  0  0  0
    6.2853   -1.5510    0.0000 C   0  0  0  0  0  0  0  0  0  0  0  0
    4.8213   -1.2242    0.0000 C   0  0  0  0  0  0  0  0  0  0  0  0
    4.3724    0.2071    0.0000 C   0  0  0  0  0  0  0  0  0  0  0  0
    5.3874    1.3115    0.0000 C   0  0  0  0  0  0  0  0  0  0  0  0
    6.8513    0.9847    0.0000 C   0  0  0  0  0  0  0  0  0  0  0  0
    4.9384    2.7427    0.0000 C   0  0  0  0  0  0  0  0  0  0  0  0
    3.4745    3.0695    0.0000 C   0  0  0  0  0  0  0  0  0  0  0  0
    2.4594    1.9651    0.0000 C   0  0  0  0  0  0  0  0  0  0  0  0
    2.9084    0.5339    0.0000 C   0  0  0  0  0  0  0  0  0  0  0  0
    1.8934   -0.5706    0.0000 C   0  0  0  0  0  0  0  0  0  0  0  0
    0.4294   -0.2438    0.0000 C   0  0  0  0  0  0  0  0  0  0  0  0
   -0.5856   -1.3482    0.0000 C   0  0  0  0  0  0  0  0  0  0  0  0
   -2.0495   -1.0214    0.0000 N   0  0  0  0  0  0  0  0  0  0  0  0
   -2.4985    0.4099    0.0000 C   0  0  0  0  0  0  0  0  0  0  0  0
   -3.9625    0.7367    0.0000 C   0  0  0  0  0  0  0  0  0  0  0  0
   -4.9775   -0.3678    0.0000 N   0  0  0  0  0  0  0  0  0  0  0  0
   -6.4414   -0.0409    0.0000 C   0  0  0  0  0  0  0  0  0  0  0  0
   -6.8904    1.3903    0.0000 C   0  0  0  0  0  0  0  0  0  0  0  0
   -8.3544    1.7171    0.0000 C   0  0  0  0  0  0  0  0  0  0  0  0
   -9.3694    0.6127    0.0000 C   0  0  0  0  0  0  0  0  0  0  0  0
   -8.9204   -0.8186    0.0000 C   0  0  0  0  0  0  0  0  0  0  0  0
   -7.4564   -1.1454    0.0000 C   0  0  0  0  0  0  0  0  0  0  0  0
   -4.5285   -1.7990    0.0000 C   0  0  0  0  0  0  0  0  0  0  0  0
   -3.0645   -2.1258    0.0000 C   0  0  0  0  0  0  0  0  0  0  0  0
  1  2  1  0
  2  3  1  0
  3  4  2  0
  4  5  1  0
  5  6  2  0
  6  7  1  0
  7  8  2  0
  7  9  1  0
  9 10  1  0
 10 11  1  0
 11 12  1  0
 12 13  1  0
 13 14  1  0
 14 15  1  0
 15 16  1  0
 16 17  1  0
 17 18  1  0
 18 19  1  0
 19 20  1  0
 20 21  1  0
 21 22  1  0
 22 23  1  0
 23 24  1  0
 24 25  1  0
 19 26  1  0
 26 27  1  0
  8  3  1  0
 27 16  1  0
 12  6  1  0
 25 20  1  0
M  END
>  <Compound_Key>  (1060) 
10

>  <Ki>  (1060) 
5.42

>  <database>  (1060) 
NewLiterature

>  <Document_ChEMBL_ID>  (1060) 
10.1038/s41598-023-39673-w

$$$$

     RDKit          2D

 25 28  0  0  0  0  0  0  0  0999 V2000
    7.9872   -0.9145    0.0000 C   0  0  0  0  0  0  0  0  0  0  0  0
    6.9250   -1.9736    0.0000 C   0  0  0  0  0  0  0  0  0  0  0  0
    5.4767   -1.5834    0.0000 C   0  0  0  0  0  0  0  0  0  0  0  0
    5.0905   -0.1339    0.0000 C   0  0  0  0  0  0  0  0  0  0  0  0
    3.6421    0.2563    0.0000 C   0  0  0  0  0  0  0  0  0  0  0  0
    2.5800   -0.8028    0.0000 C   0  0  0  0  0  0  0  0  0  0  0  0
    1.1316   -0.4126    0.0000 C   0  0  0  0  0  0  0  0  0  0  0  0
    0.0695   -1.4717    0.0000 C   0  0  0  0  0  0  0  0  0  0  0  0
   -1.3789   -1.0815    0.0000 N   0  0  0  0  0  0  0  0  0  0  0  0
   -1.7650    0.3680    0.0000 C   0  0  0  0  0  0  0  0  0  0  0  0
   -3.2134    0.7582    0.0000 C   0  0  0  0  0  0  0  0  0  0  0  0
   -4.2755   -0.3009    0.0000 N   0  0  0  0  0  0  0  0  0  0  0  0
   -5.7239    0.0893    0.0000 C   0  0  0  0  0  0  0  0  0  0  0  0
   -6.1101    1.5388    0.0000 C   0  0  0  0  0  0  0  0  0  0  0  0
   -7.5584    1.9290    0.0000 C   0  0  0  0  0  0  0  0  0  0  0  0
   -8.6206    0.8699    0.0000 C   0  0  0  0  0  0  0  0  0  0  0  0
   -8.2344   -0.5796    0.0000 C   0  0  0  0  0  0  0  0  0  0  0  0
   -6.7860   -0.9698    0.0000 C   0  0  0  0  0  0  0  0  0  0  0  0
   -3.8894   -1.7504    0.0000 C   0  0  0  0  0  0  0  0  0  0  0  0
   -2.4410   -2.1406    0.0000 C   0  0  0  0  0  0  0  0  0  0  0  0
    3.2559    1.7058    0.0000 C   0  0  0  0  0  0  0  0  0  0  0  0
    4.3181    2.7649    0.0000 C   0  0  0  0  0  0  0  0  0  0  0  0
    5.7664    2.3747    0.0000 C   0  0  0  0  0  0  0  0  0  0  0  0
    6.1526    0.9252    0.0000 C   0  0  0  0  0  0  0  0  0  0  0  0
    7.6010    0.5350    0.0000 C   0  0  0  0  0  0  0  0  0  0  0  0
  1  2  2  0
  2  3  1  0
  3  4  2  0
  4  5  1  0
  5  6  1  0
  6  7  1  0
  7  8  1  0
  8  9  1  0
  9 10  1  0
 10 11  1  0
 11 12  1  0
 12 13  1  0
 13 14  1  0
 14 15  1  0
 15 16  1  0
 16 17  1  0
 17 18  1  0
 12 19  1  0
 19 20  1  0
  5 21  2  0
 21 22  1  0
 22 23  2  0
 23 24  1  0
 24 25  2  0
 25  1  1  0
 24  4  1  0
 20  9  1  0
 18 13  1  0
M  END
>  <Compound_Key>  (1061) 
11

>  <Ki>  (1061) 
0.69

>  <database>  (1061) 
NewLiterature

>  <Document_ChEMBL_ID>  (1061) 
10.1038/s41598-023-39674-w

$$$$

     RDKit          2D

 27 30  0  0  0  0  0  0  0  0999 V2000
    9.2026   -1.0099    0.0000 C   0  0  0  0  0  0  0  0  0  0  0  0
    8.0833   -2.0085    0.0000 C   0  0  0  0  0  0  0  0  0  0  0  0
    6.6588   -1.5385    0.0000 C   0  0  0  0  0  0  0  0  0  0  0  0
    6.3536   -0.0699    0.0000 C   0  0  0  0  0  0  0  0  0  0  0  0
    4.9292    0.4002    0.0000 C   0  0  0  0  0  0  0  0  0  0  0  0
    3.8099   -0.5985    0.0000 C   0  0  0  0  0  0  0  0  0  0  0  0
    2.3854   -0.1285    0.0000 C   0  0  0  0  0  0  0  0  0  0  0  0
    1.2662   -1.1271    0.0000 C   0  0  0  0  0  0  0  0  0  0  0  0
   -0.1583   -0.6571    0.0000 C   0  0  0  0  0  0  0  0  0  0  0  0
   -1.2776   -1.6557    0.0000 C   0  0  0  0  0  0  0  0  0  0  0  0
   -2.7020   -1.1857    0.0000 N   0  0  0  0  0  0  0  0  0  0  0  0
   -3.0072    0.2830    0.0000 C   0  0  0  0  0  0  0  0  0  0  0  0
   -4.4317    0.7530    0.0000 C   0  0  0  0  0  0  0  0  0  0  0  0
   -5.5510   -0.2457    0.0000 N   0  0  0  0  0  0  0  0  0  0  0  0
   -6.9754    0.2244    0.0000 C   0  0  0  0  0  0  0  0  0  0  0  0
   -7.2806    1.6930    0.0000 C   0  0  0  0  0  0  0  0  0  0  0  0
   -8.7051    2.1630    0.0000 C   0  0  0  0  0  0  0  0  0  0  0  0
   -9.8243    1.1644    0.0000 C   0  0  0  0  0  0  0  0  0  0  0  0
   -9.5192   -0.3043    0.0000 C   0  0  0  0  0  0  0  0  0  0  0  0
   -8.0947   -0.7743    0.0000 C   0  0  0  0  0  0  0  0  0  0  0  0
   -5.2458   -1.7143    0.0000 C   0  0  0  0  0  0  0  0  0  0  0  0
   -3.8213   -2.1843    0.0000 C   0  0  0  0  0  0  0  0  0  0  0  0
    4.6240    1.8688    0.0000 C   0  0  0  0  0  0  0  0  0  0  0  0
    5.7432    2.8674    0.0000 C   0  0  0  0  0  0  0  0  0  0  0  0
    7.1677    2.3974    0.0000 C   0  0  0  0  0  0  0  0  0  0  0  0
    7.4729    0.9288    0.0000 C   0  0  0  0  0  0  0  0  0  0  0  0
    8.8974    0.4588    0.0000 C   0  0  0  0  0  0  0  0  0  0  0  0
  1  2  2  0
  2  3  1  0
  3  4  2  0
  4  5  1  0
  5  6  1  0
  6  7  1  0
  7  8  1  0
  8  9  1  0
  9 10  1  0
 10 11  1  0
 11 12  1  0
 12 13  1  0
 13 14  1  0
 14 15  1  0
 15 16  1  0
 16 17  1  0
 17 18  1  0
 18 19  1  0
 19 20  1  0
 14 21  1  0
 21 22  1  0
  5 23  2  0
 23 24  1  0
 24 25  2  0
 25 26  1  0
 26 27  2  0
 27  1  1  0
 26  4  1  0
 22 11  1  0
 20 15  1  0
M  END
>  <Compound_Key>  (1062) 
12

>  <Ki>  (1062) 
0.57

>  <database>  (1062) 
NewLiterature

>  <Document_ChEMBL_ID>  (1062) 
10.1038/s41598-023-39675-w

$$$$

     RDKit          2D

 27 30  0  0  0  0  0  0  0  0999 V2000
   -9.4439   -0.8282    0.0000 C   0  0  0  0  0  0  0  0  0  0  0  0
   -8.0074   -1.2600    0.0000 O   0  0  0  0  0  0  0  0  0  0  0  0
   -6.9152   -0.2320    0.0000 C   0  0  0  0  0  0  0  0  0  0  0  0
   -7.2594    1.2280    0.0000 C   0  0  0  0  0  0  0  0  0  0  0  0
   -6.1671    2.2561    0.0000 C   0  0  0  0  0  0  0  0  0  0  0  0
   -4.7306    1.8242    0.0000 C   0  0  0  0  0  0  0  0  0  0  0  0
   -4.3864    0.3642    0.0000 C   0  0  0  0  0  0  0  0  0  0  0  0
   -2.9500   -0.0676    0.0000 C   0  0  0  0  0  0  0  0  0  0  0  0
   -1.8577    0.9604    0.0000 C   0  0  0  0  0  0  0  0  0  0  0  0
   -0.4212    0.5286    0.0000 C   0  0  0  0  0  0  0  0  0  0  0  0
    0.6711    1.5566    0.0000 C   0  0  0  0  0  0  0  0  0  0  0  0
    2.1075    1.1248    0.0000 N   0  0  0  0  0  0  0  0  0  0  0  0
    2.4518   -0.3352    0.0000 C   0  0  0  0  0  0  0  0  0  0  0  0
    3.8882   -0.7671    0.0000 C   0  0  0  0  0  0  0  0  0  0  0  0
    4.9805    0.2610    0.0000 N   0  0  0  0  0  0  0  0  0  0  0  0
    6.4170   -0.1709    0.0000 C   0  0  0  0  0  0  0  0  0  0  0  0
    6.7612   -1.6309    0.0000 C   0  0  0  0  0  0  0  0  0  0  0  0
    8.1977   -2.0627    0.0000 C   0  0  0  0  0  0  0  0  0  0  0  0
    9.2899   -1.0347    0.0000 C   0  0  0  0  0  0  0  0  0  0  0  0
    8.9457    0.4253    0.0000 C   0  0  0  0  0  0  0  0  0  0  0  0
    7.5092    0.8572    0.0000 C   0  0  0  0  0  0  0  0  0  0  0  0
    4.6363    1.7210    0.0000 C   0  0  0  0  0  0  0  0  0  0  0  0
    3.1998    2.1528    0.0000 C   0  0  0  0  0  0  0  0  0  0  0  0
   -2.6057   -1.5276    0.0000 C   0  0  0  0  0  0  0  0  0  0  0  0
   -3.6980   -2.5557    0.0000 C   0  0  0  0  0  0  0  0  0  0  0  0
   -5.1345   -2.1238    0.0000 C   0  0  0  0  0  0  0  0  0  0  0  0
   -5.4787   -0.6638    0.0000 C   0  0  0  0  0  0  0  0  0  0  0  0
  1  2  1  0
  2  3  1  0
  3  4  2  0
  4  5  1  0
  5  6  2  0
  6  7  1  0
  7  8  2  0
  8  9  1  0
  9 10  1  0
 10 11  1  0
 11 12  1  0
 12 13  1  0
 13 14  1  0
 14 15  1  0
 15 16  1  0
 16 17  1  0
 17 18  1  0
 18 19  1  0
 19 20  1  0
 20 21  1  0
 15 22  1  0
 22 23  1  0
  8 24  1  0
 24 25  2  0
 25 26  1  0
 26 27  2  0
 27  3  1  0
 27  7  1  0
 23 12  1  0
 21 16  1  0
M  END
>  <Compound_Key>  (1063) 
13

>  <Ki>  (1063) 
9.24

>  <database>  (1063) 
NewLiterature

>  <Document_ChEMBL_ID>  (1063) 
10.1038/s41598-023-39676-w

$$$$

     RDKit          2D

 26 29  0  0  0  0  0  0  0  0999 V2000
    9.0911   -1.1123    0.0000 O   0  0  0  0  0  0  0  0  0  0  0  0
    7.6368   -0.7448    0.0000 C   0  0  0  0  0  0  0  0  0  0  0  0
    6.5914   -1.8205    0.0000 C   0  0  0  0  0  0  0  0  0  0  0  0
    5.1371   -1.4529    0.0000 C   0  0  0  0  0  0  0  0  0  0  0  0
    4.7283   -0.0097    0.0000 C   0  0  0  0  0  0  0  0  0  0  0  0
    3.2740    0.3578    0.0000 C   0  0  0  0  0  0  0  0  0  0  0  0
    2.2286   -0.7178    0.0000 C   0  0  0  0  0  0  0  0  0  0  0  0
    0.7743   -0.3503    0.0000 C   0  0  0  0  0  0  0  0  0  0  0  0
   -0.2711   -1.4260    0.0000 C   0  0  0  0  0  0  0  0  0  0  0  0
   -1.7254   -1.0584    0.0000 N   0  0  0  0  0  0  0  0  0  0  0  0
   -2.1342    0.3848    0.0000 C   0  0  0  0  0  0  0  0  0  0  0  0
   -3.5885    0.7523    0.0000 C   0  0  0  0  0  0  0  0  0  0  0  0
   -4.6339   -0.3233    0.0000 N   0  0  0  0  0  0  0  0  0  0  0  0
   -6.0882    0.0442    0.0000 C   0  0  0  0  0  0  0  0  0  0  0  0
   -6.4971    1.4874    0.0000 C   0  0  0  0  0  0  0  0  0  0  0  0
   -7.9513    1.8549    0.0000 C   0  0  0  0  0  0  0  0  0  0  0  0
   -8.9968    0.7793    0.0000 C   0  0  0  0  0  0  0  0  0  0  0  0
   -8.5879   -0.6639    0.0000 C   0  0  0  0  0  0  0  0  0  0  0  0
   -7.1337   -1.0315    0.0000 C   0  0  0  0  0  0  0  0  0  0  0  0
   -4.2251   -1.7666    0.0000 C   0  0  0  0  0  0  0  0  0  0  0  0
   -2.7708   -2.1341    0.0000 C   0  0  0  0  0  0  0  0  0  0  0  0
    2.8652    1.8010    0.0000 C   0  0  0  0  0  0  0  0  0  0  0  0
    3.9106    2.8767    0.0000 C   0  0  0  0  0  0  0  0  0  0  0  0
    5.3649    2.5092    0.0000 C   0  0  0  0  0  0  0  0  0  0  0  0
    5.7737    1.0660    0.0000 C   0  0  0  0  0  0  0  0  0  0  0  0
    7.2280    0.6984    0.0000 C   0  0  0  0  0  0  0  0  0  0  0  0
  1  2  1  0
  2  3  2  0
  3  4  1  0
  4  5  2  0
  5  6  1  0
  6  7  1  0
  7  8  1  0
  8  9  1  0
  9 10  1  0
 10 11  1  0
 11 12  1  0
 12 13  1  0
 13 14  1  0
 14 15  1  0
 15 16  1  0
 16 17  1  0
 17 18  1  0
 18 19  1  0
 13 20  1  0
 20 21  1  0
  6 22  2  0
 22 23  1  0
 23 24  2  0
 24 25  1  0
 25 26  2  0
 26  2  1  0
 25  5  1  0
 21 10  1  0
 19 14  1  0
M  END
>  <Compound_Key>  (1064) 
14

>  <Ki>  (1064) 
9.02

>  <database>  (1064) 
NewLiterature

>  <Document_ChEMBL_ID>  (1064) 
10.1038/s41598-023-39677-w

$$$$

     RDKit          2D

 26 29  0  0  0  0  0  0  0  0999 V2000
   -8.3560   -1.3835    0.0000 O   0  0  0  0  0  0  0  0  0  0  0  0
   -7.2751   -0.3435    0.0000 C   0  0  0  0  0  0  0  0  0  0  0  0
   -7.6353    1.1126    0.0000 C   0  0  0  0  0  0  0  0  0  0  0  0
   -6.5543    2.1526    0.0000 C   0  0  0  0  0  0  0  0  0  0  0  0
   -5.1132    1.7365    0.0000 C   0  0  0  0  0  0  0  0  0  0  0  0
   -4.7530    0.2804    0.0000 C   0  0  0  0  0  0  0  0  0  0  0  0
   -5.8340   -0.7596    0.0000 C   0  0  0  0  0  0  0  0  0  0  0  0
   -5.4738   -2.2157    0.0000 C   0  0  0  0  0  0  0  0  0  0  0  0
   -4.0327   -2.6319    0.0000 C   0  0  0  0  0  0  0  0  0  0  0  0
   -2.9517   -1.5919    0.0000 C   0  0  0  0  0  0  0  0  0  0  0  0
   -3.3119   -0.1358    0.0000 C   0  0  0  0  0  0  0  0  0  0  0  0
   -2.2309    0.9042    0.0000 C   0  0  0  0  0  0  0  0  0  0  0  0
   -0.7898    0.4881    0.0000 C   0  0  0  0  0  0  0  0  0  0  0  0
    0.2911    1.5281    0.0000 C   0  0  0  0  0  0  0  0  0  0  0  0
    1.7322    1.1119    0.0000 N   0  0  0  0  0  0  0  0  0  0  0  0
    2.0924   -0.3442    0.0000 C   0  0  0  0  0  0  0  0  0  0  0  0
    3.5335   -0.7603    0.0000 C   0  0  0  0  0  0  0  0  0  0  0  0
    4.6145    0.2797    0.0000 N   0  0  0  0  0  0  0  0  0  0  0  0
    6.0556   -0.1365    0.0000 C   0  0  0  0  0  0  0  0  0  0  0  0
    6.4158   -1.5926    0.0000 C   0  0  0  0  0  0  0  0  0  0  0  0
    7.8569   -2.0087    0.0000 C   0  0  0  0  0  0  0  0  0  0  0  0
    8.9379   -0.9687    0.0000 C   0  0  0  0  0  0  0  0  0  0  0  0
    8.5777    0.4874    0.0000 C   0  0  0  0  0  0  0  0  0  0  0  0
    7.1365    0.9035    0.0000 C   0  0  0  0  0  0  0  0  0  0  0  0
    4.2543    1.7358    0.0000 C   0  0  0  0  0  0  0  0  0  0  0  0
    2.8132    2.1519    0.0000 C   0  0  0  0  0  0  0  0  0  0  0  0
  1  2  1  0
  2  3  2  0
  3  4  1  0
  4  5  2  0
  5  6  1  0
  6  7  2  0
  7  8  1  0
  8  9  1  0
  9 10  1  0
 10 11  1  0
 11 12  1  0
 12 13  1  0
 13 14  1  0
 14 15  1  0
 15 16  1  0
 16 17  1  0
 17 18  1  0
 18 19  1  0
 19 20  1  0
 20 21  1  0
 21 22  1  0
 22 23  1  0
 23 24  1  0
 18 25  1  0
 25 26  1  0
  7  2  1  0
 26 15  1  0
 11  6  1  0
 24 19  1  0
M  END
>  <Compound_Key>  (1065) 
15

>  <Ki>  (1065) 
2.66

>  <database>  (1065) 
NewLiterature

>  <Document_ChEMBL_ID>  (1065) 
10.1038/s41598-023-39678-w

$$$$

     RDKit          2D

 26 29  0  0  0  0  0  0  0  0999 V2000
    9.0911   -1.1123    0.0000 C   0  0  0  0  0  0  0  0  0  0  0  0
    7.6368   -0.7448    0.0000 C   0  0  0  0  0  0  0  0  0  0  0  0
    6.5914   -1.8205    0.0000 C   0  0  0  0  0  0  0  0  0  0  0  0
    5.1371   -1.4529    0.0000 C   0  0  0  0  0  0  0  0  0  0  0  0
    4.7283   -0.0097    0.0000 C   0  0  0  0  0  0  0  0  0  0  0  0
    5.7737    1.0660    0.0000 C   0  0  0  0  0  0  0  0  0  0  0  0
    7.2280    0.6984    0.0000 C   0  0  0  0  0  0  0  0  0  0  0  0
    5.3649    2.5092    0.0000 C   0  0  0  0  0  0  0  0  0  0  0  0
    3.9106    2.8767    0.0000 C   0  0  0  0  0  0  0  0  0  0  0  0
    2.8652    1.8010    0.0000 C   0  0  0  0  0  0  0  0  0  0  0  0
    3.2740    0.3578    0.0000 C   0  0  0  0  0  0  0  0  0  0  0  0
    2.2286   -0.7178    0.0000 C   0  0  0  0  0  0  0  0  0  0  0  0
    0.7743   -0.3503    0.0000 C   0  0  0  0  0  0  0  0  0  0  0  0
   -0.2711   -1.4260    0.0000 C   0  0  0  0  0  0  0  0  0  0  0  0
   -1.7254   -1.0584    0.0000 N   0  0  0  0  0  0  0  0  0  0  0  0
   -2.1342    0.3848    0.0000 C   0  0  0  0  0  0  0  0  0  0  0  0
   -3.5885    0.7523    0.0000 C   0  0  0  0  0  0  0  0  0  0  0  0
   -4.6339   -0.3233    0.0000 N   0  0  0  0  0  0  0  0  0  0  0  0
   -6.0882    0.0442    0.0000 C   0  0  0  0  0  0  0  0  0  0  0  0
   -6.4971    1.4874    0.0000 C   0  0  0  0  0  0  0  0  0  0  0  0
   -7.9513    1.8549    0.0000 C   0  0  0  0  0  0  0  0  0  0  0  0
   -8.9968    0.7793    0.0000 C   0  0  0  0  0  0  0  0  0  0  0  0
   -8.5879   -0.6639    0.0000 C   0  0  0  0  0  0  0  0  0  0  0  0
   -7.1337   -1.0315    0.0000 C   0  0  0  0  0  0  0  0  0  0  0  0
   -4.2251   -1.7666    0.0000 C   0  0  0  0  0  0  0  0  0  0  0  0
   -2.7708   -2.1341    0.0000 C   0  0  0  0  0  0  0  0  0  0  0  0
  1  2  1  0
  2  3  2  0
  3  4  1  0
  4  5  2  0
  5  6  1  0
  6  7  2  0
  6  8  1  0
  8  9  1  0
  9 10  1  0
 10 11  1  0
 11 12  1  0
 12 13  1  0
 13 14  1  0
 14 15  1  0
 15 16  1  0
 16 17  1  0
 17 18  1  0
 18 19  1  0
 19 20  1  0
 20 21  1  0
 21 22  1  0
 22 23  1  0
 23 24  1  0
 18 25  1  0
 25 26  1  0
  7  2  1  0
 26 15  1  0
 11  5  1  0
 24 19  1  0
M  END
>  <Compound_Key>  (1066) 
16

>  <Ki>  (1066) 
1.12

>  <database>  (1066) 
NewLiterature

>  <Document_ChEMBL_ID>  (1066) 
10.1038/s41598-023-39679-w

$$$$

     RDKit          2D

 26 29  0  0  0  0  0  0  0  0999 V2000
    9.0911   -1.1123    0.0000 O   0  0  0  0  0  0  0  0  0  0  0  0
    7.6368   -0.7448    0.0000 C   0  0  0  0  0  0  0  0  0  0  0  0
    6.5914   -1.8205    0.0000 C   0  0  0  0  0  0  0  0  0  0  0  0
    5.1371   -1.4529    0.0000 C   0  0  0  0  0  0  0  0  0  0  0  0
    4.7283   -0.0097    0.0000 C   0  0  0  0  0  0  0  0  0  0  0  0
    5.7737    1.0660    0.0000 C   0  0  0  0  0  0  0  0  0  0  0  0
    7.2280    0.6984    0.0000 C   0  0  0  0  0  0  0  0  0  0  0  0
    5.3649    2.5092    0.0000 C   0  0  0  0  0  0  0  0  0  0  0  0
    3.9106    2.8767    0.0000 C   0  0  0  0  0  0  0  0  0  0  0  0
    2.8652    1.8010    0.0000 C   0  0  0  0  0  0  0  0  0  0  0  0
    3.2740    0.3578    0.0000 C   0  0  0  0  0  0  0  0  0  0  0  0
    2.2286   -0.7178    0.0000 C   0  0  0  0  0  0  0  0  0  0  0  0
    0.7743   -0.3503    0.0000 C   0  0  0  0  0  0  0  0  0  0  0  0
   -0.2711   -1.4260    0.0000 C   0  0  0  0  0  0  0  0  0  0  0  0
   -1.7254   -1.0584    0.0000 N   0  0  0  0  0  0  0  0  0  0  0  0
   -2.1342    0.3848    0.0000 C   0  0  0  0  0  0  0  0  0  0  0  0
   -3.5885    0.7523    0.0000 C   0  0  0  0  0  0  0  0  0  0  0  0
   -4.6339   -0.3233    0.0000 N   0  0  0  0  0  0  0  0  0  0  0  0
   -6.0882    0.0442    0.0000 C   0  0  0  0  0  0  0  0  0  0  0  0
   -6.4971    1.4874    0.0000 C   0  0  0  0  0  0  0  0  0  0  0  0
   -7.9513    1.8549    0.0000 C   0  0  0  0  0  0  0  0  0  0  0  0
   -8.9968    0.7793    0.0000 C   0  0  0  0  0  0  0  0  0  0  0  0
   -8.5879   -0.6639    0.0000 C   0  0  0  0  0  0  0  0  0  0  0  0
   -7.1337   -1.0315    0.0000 C   0  0  0  0  0  0  0  0  0  0  0  0
   -4.2251   -1.7666    0.0000 C   0  0  0  0  0  0  0  0  0  0  0  0
   -2.7708   -2.1341    0.0000 C   0  0  0  0  0  0  0  0  0  0  0  0
  1  2  1  0
  2  3  2  0
  3  4  1  0
  4  5  2  0
  5  6  1  0
  6  7  2  0
  6  8  1  0
  8  9  1  0
  9 10  1  0
 10 11  1  0
 11 12  1  0
 12 13  1  0
 13 14  1  0
 14 15  1  0
 15 16  1  0
 16 17  1  0
 17 18  1  0
 18 19  1  0
 19 20  1  0
 20 21  1  0
 21 22  1  0
 22 23  1  0
 23 24  1  0
 18 25  1  0
 25 26  1  0
  7  2  1  0
 26 15  1  0
 11  5  1  0
 24 19  1  0
M  END
>  <Compound_Key>  (1067) 
17

>  <Ki>  (1067) 
26.4

>  <database>  (1067) 
NewLiterature

>  <Document_ChEMBL_ID>  (1067) 
10.1038/s41598-023-39680-w

$$$$

     RDKit          2D

 26 29  0  0  0  0  0  0  0  0999 V2000
   -7.1371   -3.0523    0.0000 C   0  0  0  0  0  0  0  0  0  0  0  0
   -6.7022   -1.6167    0.0000 C   0  0  0  0  0  0  0  0  0  0  0  0
   -7.7280   -0.5223    0.0000 C   0  0  0  0  0  0  0  0  0  0  0  0
   -7.2931    0.9133    0.0000 C   0  0  0  0  0  0  0  0  0  0  0  0
   -5.8324    1.2544    0.0000 C   0  0  0  0  0  0  0  0  0  0  0  0
   -5.3975    2.6900    0.0000 C   0  0  0  0  0  0  0  0  0  0  0  0
   -3.9368    3.0312    0.0000 C   0  0  0  0  0  0  0  0  0  0  0  0
   -2.9110    1.9368    0.0000 C   0  0  0  0  0  0  0  0  0  0  0  0
   -3.3459    0.5012    0.0000 C   0  0  0  0  0  0  0  0  0  0  0  0
   -2.3201   -0.5932    0.0000 C   0  0  0  0  0  0  0  0  0  0  0  0
   -0.8594   -0.2520    0.0000 C   0  0  0  0  0  0  0  0  0  0  0  0
    0.1664   -1.3464    0.0000 C   0  0  0  0  0  0  0  0  0  0  0  0
    1.6271   -1.0053    0.0000 N   0  0  0  0  0  0  0  0  0  0  0  0
    2.6529   -2.0997    0.0000 C   0  0  0  0  0  0  0  0  0  0  0  0
    4.1135   -1.7585    0.0000 C   0  0  0  0  0  0  0  0  0  0  0  0
    4.5484   -0.3230    0.0000 N   0  0  0  0  0  0  0  0  0  0  0  0
    6.0091    0.0182    0.0000 C   0  0  0  0  0  0  0  0  0  0  0  0
    7.0349   -1.0762    0.0000 C   0  0  0  0  0  0  0  0  0  0  0  0
    8.4956   -0.7350    0.0000 C   0  0  0  0  0  0  0  0  0  0  0  0
    8.9305    0.7005    0.0000 C   0  0  0  0  0  0  0  0  0  0  0  0
    7.9047    1.7950    0.0000 C   0  0  0  0  0  0  0  0  0  0  0  0
    6.4440    1.4538    0.0000 C   0  0  0  0  0  0  0  0  0  0  0  0
    3.5226    0.7715    0.0000 C   0  0  0  0  0  0  0  0  0  0  0  0
    2.0619    0.4303    0.0000 C   0  0  0  0  0  0  0  0  0  0  0  0
   -4.8066    0.1600    0.0000 C   0  0  0  0  0  0  0  0  0  0  0  0
   -5.2415   -1.2755    0.0000 C   0  0  0  0  0  0  0  0  0  0  0  0
  1  2  1  0
  2  3  2  0
  3  4  1  0
  4  5  2  0
  5  6  1  0
  6  7  2  0
  7  8  1  0
  8  9  2  0
  9 10  1  0
 10 11  1  0
 11 12  1  0
 12 13  1  0
 13 14  1  0
 14 15  1  0
 15 16  1  0
 16 17  1  0
 17 18  1  0
 18 19  1  0
 19 20  1  0
 20 21  1  0
 21 22  1  0
 16 23  1  0
 23 24  1  0
  9 25  1  0
 25 26  2  0
 26  2  1  0
 25  5  1  0
 24 13  1  0
 22 17  1  0
M  END
>  <Compound_Key>  (1068) 
18

>  <Ki>  (1068) 
11.8

>  <database>  (1068) 
NewLiterature

>  <Document_ChEMBL_ID>  (1068) 
10.1038/s41598-023-39681-w

$$$$

     RDKit          2D

 30 33  0  0  0  0  0  0  0  0999 V2000
   -9.2663   -0.3712    0.0000 C   0  0  0  0  0  0  0  0  0  0  0  0
   -8.1226   -1.3418    0.0000 O   0  0  0  0  0  0  0  0  0  0  0  0
   -6.7103   -0.8366    0.0000 C   0  0  0  0  0  0  0  0  0  0  0  0
   -6.4416    0.6391    0.0000 C   0  0  0  0  0  0  0  0  0  0  0  0
   -5.0292    1.1443    0.0000 C   0  0  0  0  0  0  0  0  0  0  0  0
   -3.8855    0.1738    0.0000 C   0  0  0  0  0  0  0  0  0  0  0  0
   -4.1542   -1.3020    0.0000 C   0  0  0  0  0  0  0  0  0  0  0  0
   -5.5666   -1.8072    0.0000 C   0  0  0  0  0  0  0  0  0  0  0  0
   -5.8352   -3.2829    0.0000 O   0  0  0  0  0  0  0  0  0  0  0  0
   -4.6916   -4.2534    0.0000 C   0  0  0  0  0  0  0  0  0  0  0  0
   -2.4732    0.6790    0.0000 C   0  0  0  0  0  0  0  0  0  0  0  0
   -2.2045    2.1547    0.0000 N   0  0  0  0  0  0  0  0  0  0  0  0
   -0.7921    2.6599    0.0000 C   0  0  0  0  0  0  0  0  0  0  0  0
    0.3516    1.6893    0.0000 C   0  0  0  0  0  0  0  0  0  0  0  0
    1.7639    2.1945    0.0000 C   0  0  0  0  0  0  0  0  0  0  0  0
    2.9076    1.2240    0.0000 N   0  0  0  0  0  0  0  0  0  0  0  0
    2.6390   -0.2518    0.0000 C   0  0  0  0  0  0  0  0  0  0  0  0
    3.7827   -1.2223    0.0000 C   0  0  0  0  0  0  0  0  0  0  0  0
    5.1950   -0.7171    0.0000 C   0  0  0  0  0  0  0  0  0  0  0  0
    6.3387   -1.6877    0.0000 C   0  0  0  0  0  0  0  0  0  0  0  0
    6.0700   -3.1634    0.0000 O   0  0  0  0  0  0  0  0  0  0  0  0
    7.2137   -4.1340    0.0000 C   0  0  0  0  0  0  0  0  0  0  0  0
    7.7511   -1.1825    0.0000 C   0  0  0  0  0  0  0  0  0  0  0  0
    8.0198    0.2933    0.0000 C   0  0  0  0  0  0  0  0  0  0  0  0
    6.8761    1.2638    0.0000 C   0  0  0  0  0  0  0  0  0  0  0  0
    5.4637    0.7586    0.0000 C   0  0  0  0  0  0  0  0  0  0  0  0
    4.3200    1.7292    0.0000 C   0  0  0  0  0  0  0  0  0  0  0  0
    4.5887    3.2049    0.0000 O   0  0  0  0  0  0  0  0  0  0  0  0
   -3.3482    3.1253    0.0000 C   0  0  0  0  0  0  0  0  0  0  0  0
   -4.7605    2.6201    0.0000 C   0  0  0  0  0  0  0  0  0  0  0  0
  1  2  1  0
  2  3  1  0
  3  4  2  0
  4  5  1  0
  5  6  2  0
  6  7  1  0
  7  8  2  0
  8  9  1  0
  9 10  1  0
  6 11  1  0
 11 12  1  0
 12 13  1  0
 13 14  1  0
 14 15  1  0
 15 16  1  0
 16 17  1  0
 17 18  1  0
 18 19  1  0
 19 20  2  0
 20 21  1  0
 21 22  1  0
 20 23  1  0
 23 24  2  0
 24 25  1  0
 25 26  2  0
 26 27  1  0
 27 28  2  0
 12 29  1  0
 29 30  1  0
  8  3  1  0
 27 16  1  0
 30  5  1  0
 26 19  1  0
M  END
>  <Compound_Key>  (1069) 
19

>  <Ki>  (1069) 
4.24

>  <database>  (1069) 
NewLiterature

>  <Document_ChEMBL_ID>  (1069) 
10.1038/s41598-023-39682-w

$$$$

     RDKit          2D

 29 32  0  0  0  0  0  0  0  0999 V2000
   -9.1298   -0.1749    0.0000 C   0  0  0  0  0  0  0  0  0  0  0  0
   -8.0268   -1.1915    0.0000 O   0  0  0  0  0  0  0  0  0  0  0  0
   -6.5949   -0.7446    0.0000 C   0  0  0  0  0  0  0  0  0  0  0  0
   -6.2661    0.7189    0.0000 C   0  0  0  0  0  0  0  0  0  0  0  0
   -4.8342    1.1659    0.0000 C   0  0  0  0  0  0  0  0  0  0  0  0
   -3.7312    0.1493    0.0000 C   0  0  0  0  0  0  0  0  0  0  0  0
   -4.0601   -1.3142    0.0000 C   0  0  0  0  0  0  0  0  0  0  0  0
   -5.4919   -1.7611    0.0000 C   0  0  0  0  0  0  0  0  0  0  0  0
   -5.8208   -3.2246    0.0000 O   0  0  0  0  0  0  0  0  0  0  0  0
   -4.7178   -4.2412    0.0000 C   0  0  0  0  0  0  0  0  0  0  0  0
   -2.2993    0.5962    0.0000 C   0  0  0  0  0  0  0  0  0  0  0  0
   -1.9704    2.0597    0.0000 N   0  0  0  0  0  0  0  0  0  0  0  0
   -0.5386    2.5067    0.0000 C   0  0  0  0  0  0  0  0  0  0  0  0
    0.5644    1.4901    0.0000 C   0  0  0  0  0  0  0  0  0  0  0  0
    1.9963    1.9370    0.0000 C   0  0  0  0  0  0  0  0  0  0  0  0
    3.0993    0.9204    0.0000 N   0  0  0  0  0  0  0  0  0  0  0  0
    2.7704   -0.5431    0.0000 C   0  0  0  0  0  0  0  0  0  0  0  0
    3.8734   -1.5596    0.0000 C   0  0  0  0  0  0  0  0  0  0  0  0
    5.3053   -1.1127    0.0000 C   0  0  0  0  0  0  0  0  0  0  0  0
    6.4082   -2.1293    0.0000 C   0  0  0  0  0  0  0  0  0  0  0  0
    7.8401   -1.6823    0.0000 C   0  0  0  0  0  0  0  0  0  0  0  0
    8.9431   -2.6989    0.0000 F   0  0  0  0  0  0  0  0  0  0  0  0
    8.1690   -0.2188    0.0000 C   0  0  0  0  0  0  0  0  0  0  0  0
    7.0660    0.7977    0.0000 C   0  0  0  0  0  0  0  0  0  0  0  0
    5.6341    0.3508    0.0000 C   0  0  0  0  0  0  0  0  0  0  0  0
    4.5311    1.3674    0.0000 C   0  0  0  0  0  0  0  0  0  0  0  0
    4.8600    2.8309    0.0000 O   0  0  0  0  0  0  0  0  0  0  0  0
   -3.0734    3.0763    0.0000 C   0  0  0  0  0  0  0  0  0  0  0  0
   -4.5053    2.6294    0.0000 C   0  0  0  0  0  0  0  0  0  0  0  0
  1  2  1  0
  2  3  1  0
  3  4  2  0
  4  5  1  0
  5  6  2  0
  6  7  1  0
  7  8  2  0
  8  9  1  0
  9 10  1  0
  6 11  1  0
 11 12  1  0
 12 13  1  0
 13 14  1  0
 14 15  1  0
 15 16  1  0
 16 17  1  0
 17 18  1  0
 18 19  1  0
 19 20  2  0
 20 21  1  0
 21 22  1  0
 21 23  2  0
 23 24  1  0
 24 25  2  0
 25 26  1  0
 26 27  2  0
 12 28  1  0
 28 29  1  0
  8  3  1  0
 26 16  1  0
 29  5  1  0
 25 19  1  0
M  END
>  <Compound_Key>  (1070) 
20

>  <Ki>  (1070) 
3.56

>  <database>  (1070) 
NewLiterature

>  <Document_ChEMBL_ID>  (1070) 
10.1038/s41598-023-39683-w

$$$$

     RDKit          2D

 28 31  0  0  0  0  0  0  0  0999 V2000
   -8.8144    0.0551    0.0000 C   0  0  0  0  0  0  0  0  0  0  0  0
   -7.7498   -1.0016    0.0000 O   0  0  0  0  0  0  0  0  0  0  0  0
   -6.3024   -0.6080    0.0000 C   0  0  0  0  0  0  0  0  0  0  0  0
   -5.9195    0.8423    0.0000 C   0  0  0  0  0  0  0  0  0  0  0  0
   -4.4721    1.2359    0.0000 C   0  0  0  0  0  0  0  0  0  0  0  0
   -3.4075    0.1792    0.0000 C   0  0  0  0  0  0  0  0  0  0  0  0
   -3.7903   -1.2711    0.0000 C   0  0  0  0  0  0  0  0  0  0  0  0
   -5.2378   -1.6647    0.0000 C   0  0  0  0  0  0  0  0  0  0  0  0
   -5.6206   -3.1151    0.0000 O   0  0  0  0  0  0  0  0  0  0  0  0
   -4.5560   -4.1718    0.0000 C   0  0  0  0  0  0  0  0  0  0  0  0
   -1.9601    0.5728    0.0000 C   0  0  0  0  0  0  0  0  0  0  0  0
   -1.5772    2.0231    0.0000 N   0  0  0  0  0  0  0  0  0  0  0  0
   -0.1298    2.4167    0.0000 C   0  0  0  0  0  0  0  0  0  0  0  0
    0.9348    1.3600    0.0000 C   0  0  0  0  0  0  0  0  0  0  0  0
    2.3822    1.7536    0.0000 C   0  0  0  0  0  0  0  0  0  0  0  0
    3.4468    0.6969    0.0000 N   0  0  0  0  0  0  0  0  0  0  0  0
    3.0640   -0.7534    0.0000 C   0  0  0  0  0  0  0  0  0  0  0  0
    4.1286   -1.8101    0.0000 C   0  0  0  0  0  0  0  0  0  0  0  0
    5.5760   -1.4165    0.0000 C   0  0  0  0  0  0  0  0  0  0  0  0
    6.6406   -2.4732    0.0000 C   0  0  0  0  0  0  0  0  0  0  0  0
    8.0881   -2.0796    0.0000 C   0  0  0  0  0  0  0  0  0  0  0  0
    8.4709   -0.6293    0.0000 C   0  0  0  0  0  0  0  0  0  0  0  0
    7.4063    0.4274    0.0000 C   0  0  0  0  0  0  0  0  0  0  0  0
    5.9589    0.0338    0.0000 C   0  0  0  0  0  0  0  0  0  0  0  0
    4.8943    1.0905    0.0000 C   0  0  0  0  0  0  0  0  0  0  0  0
    5.2771    2.5409    0.0000 O   0  0  0  0  0  0  0  0  0  0  0  0
   -2.6418    3.0798    0.0000 C   0  0  0  0  0  0  0  0  0  0  0  0
   -4.0893    2.6862    0.0000 C   0  0  0  0  0  0  0  0  0  0  0  0
  1  2  1  0
  2  3  1  0
  3  4  2  0
  4  5  1  0
  5  6  2  0
  6  7  1  0
  7  8  2  0
  8  9  1  0
  9 10  1  0
  6 11  1  0
 11 12  1  0
 12 13  1  0
 13 14  1  0
 14 15  1  0
 15 16  1  0
 16 17  1  0
 17 18  1  0
 18 19  1  0
 19 20  2  0
 20 21  1  0
 21 22  2  0
 22 23  1  0
 23 24  2  0
 24 25  1  0
 25 26  2  0
 12 27  1  0
 27 28  1  0
  8  3  1  0
 25 16  1  0
 28  5  1  0
 24 19  1  0
M  END
>  <Compound_Key>  (1071) 
21

>  <Ki>  (1071) 
4.84

>  <database>  (1071) 
NewLiterature

>  <Document_ChEMBL_ID>  (1071) 
10.1038/s41598-023-39684-w

$$$$

     RDKit          2D

 29 32  0  0  0  0  0  0  0  0999 V2000
   -9.1404    0.4747    0.0000 C   0  0  0  0  0  0  0  0  0  0  0  0
   -8.1639   -0.6639    0.0000 O   0  0  0  0  0  0  0  0  0  0  0  0
   -6.6896   -0.3877    0.0000 C   0  0  0  0  0  0  0  0  0  0  0  0
   -6.1917    1.0273    0.0000 C   0  0  0  0  0  0  0  0  0  0  0  0
   -4.7174    1.3036    0.0000 C   0  0  0  0  0  0  0  0  0  0  0  0
   -3.7409    0.1649    0.0000 C   0  0  0  0  0  0  0  0  0  0  0  0
   -4.2388   -1.2501    0.0000 C   0  0  0  0  0  0  0  0  0  0  0  0
   -5.7132   -1.5263    0.0000 C   0  0  0  0  0  0  0  0  0  0  0  0
   -6.2111   -2.9413    0.0000 O   0  0  0  0  0  0  0  0  0  0  0  0
   -5.2346   -4.0800    0.0000 C   0  0  0  0  0  0  0  0  0  0  0  0
   -2.2666    0.4412    0.0000 C   0  0  0  0  0  0  0  0  0  0  0  0
   -1.7687    1.8561    0.0000 N   0  0  0  0  0  0  0  0  0  0  0  0
   -0.2943    2.1324    0.0000 C   0  0  0  0  0  0  0  0  0  0  0  0
    0.6821    0.9937    0.0000 C   0  0  0  0  0  0  0  0  0  0  0  0
    2.1564    1.2700    0.0000 C   0  0  0  0  0  0  0  0  0  0  0  0
    3.1329    0.1313    0.0000 N   0  0  0  0  0  0  0  0  0  0  0  0
    2.6350   -1.2836    0.0000 C   0  0  0  0  0  0  0  0  0  0  0  0
    3.6114   -2.4223    0.0000 C   0  0  0  0  0  0  0  0  0  0  0  0
    5.0857   -2.1460    0.0000 C   0  0  0  0  0  0  0  0  0  0  0  0
    5.5836   -0.7311    0.0000 C   0  0  0  0  0  0  0  0  0  0  0  0
    7.0580   -0.4548    0.0000 C   0  0  0  0  0  0  0  0  0  0  0  0
    8.0344   -1.5935    0.0000 O   0  0  0  0  0  0  0  0  0  0  0  0
    9.5087   -1.3172    0.0000 C   0  0  0  0  0  0  0  0  0  0  0  0
    7.5559    0.9602    0.0000 C   0  0  0  0  0  0  0  0  0  0  0  0
    6.5794    2.0988    0.0000 C   0  0  0  0  0  0  0  0  0  0  0  0
    5.1051    1.8226    0.0000 C   0  0  0  0  0  0  0  0  0  0  0  0
    4.6072    0.4076    0.0000 C   0  0  0  0  0  0  0  0  0  0  0  0
   -2.7451    2.9948    0.0000 C   0  0  0  0  0  0  0  0  0  0  0  0
   -4.2194    2.7185    0.0000 C   0  0  0  0  0  0  0  0  0  0  0  0
  1  2  1  0
  2  3  1  0
  3  4  2  0
  4  5  1  0
  5  6  2  0
  6  7  1  0
  7  8  2  0
  8  9  1  0
  9 10  1  0
  6 11  1  0
 11 12  1  0
 12 13  1  0
 13 14  1  0
 14 15  1  0
 15 16  1  0
 16 17  1  0
 17 18  1  0
 18 19  1  0
 19 20  1  0
 20 21  2  0
 21 22  1  0
 22 23  1  0
 21 24  1  0
 24 25  2  0
 25 26  1  0
 26 27  2  0
 12 28  1  0
 28 29  1  0
  8  3  1  0
 27 16  1  0
 29  5  1  0
 27 20  1  0
M  END
>  <Compound_Key>  (1072) 
22

>  <Ki>  (1072) 
1.42

>  <database>  (1072) 
NewLiterature

>  <Document_ChEMBL_ID>  (1072) 
10.1038/s41598-023-39685-w

$$$$

     RDKit          2D

 22 24  0  0  0  0  0  0  0  0999 V2000
   -7.6471   -0.3953    0.0000 C   0  0  0  0  0  0  0  0  0  0  0  0
   -6.2483   -0.9368    0.0000 O   0  0  0  0  0  0  0  0  0  0  0  0
   -5.0799    0.0038    0.0000 C   0  0  0  0  0  0  0  0  0  0  0  0
   -5.3103    1.4860    0.0000 C   0  0  0  0  0  0  0  0  0  0  0  0
   -4.1419    2.4267    0.0000 C   0  0  0  0  0  0  0  0  0  0  0  0
   -2.7431    1.8851    0.0000 C   0  0  0  0  0  0  0  0  0  0  0  0
   -2.5126    0.4029    0.0000 C   0  0  0  0  0  0  0  0  0  0  0  0
   -3.6811   -0.5377    0.0000 C   0  0  0  0  0  0  0  0  0  0  0  0
   -3.4506   -2.0199    0.0000 C   0  0  0  0  0  0  0  0  0  0  0  0
   -2.0518   -2.5615    0.0000 C   0  0  0  0  0  0  0  0  0  0  0  0
   -0.8834   -1.6208    0.0000 C   0  0  0  0  0  0  0  0  0  0  0  0
   -1.1138   -0.1386    0.0000 C   0  0  0  0  0  0  0  0  0  0  0  0
    0.0546    0.8020    0.0000 C   0  0  0  0  0  0  0  0  0  0  0  0
    1.4534    0.2604    0.0000 C   0  0  0  0  0  0  0  0  0  0  0  0
    2.6218    1.2011    0.0000 C   0  0  0  0  0  0  0  0  0  0  0  0
    4.0207    0.6595    0.0000 N   0  0  0  0  0  0  0  0  0  0  0  0
    4.2511   -0.8227    0.0000 C   0  0  0  0  0  0  0  0  0  0  0  0
    5.6499   -1.3642    0.0000 C   0  0  0  0  0  0  0  0  0  0  0  0
    6.8183   -0.4236    0.0000 N   0  0  0  0  0  0  0  0  0  0  0  0
    8.2171   -0.9651    0.0000 C   0  0  0  0  0  0  0  0  0  0  0  0
    6.5879    1.0586    0.0000 C   0  0  0  0  0  0  0  0  0  0  0  0
    5.1891    1.6002    0.0000 C   0  0  0  0  0  0  0  0  0  0  0  0
  1  2  1  0
  2  3  1  0
  3  4  2  0
  4  5  1  0
  5  6  2  0
  6  7  1  0
  7  8  2  0
  8  9  1  0
  9 10  1  0
 10 11  1  0
 11 12  1  0
 12 13  1  0
 13 14  1  0
 14 15  1  0
 15 16  1  0
 16 17  1  0
 17 18  1  0
 18 19  1  0
 19 20  1  0
 19 21  1  0
 21 22  1  0
  8  3  1  0
 22 16  1  0
 12  7  1  0
M  END
>  <Compound_Key>  (1073) 
23

>  <Ki>  (1073) 
663.0

>  <database>  (1073) 
NewLiterature

>  <Document_ChEMBL_ID>  (1073) 
10.1038/s41598-023-39686-w

$$$$

     RDKit          2D

 24 26  0  0  0  0  0  0  0  0999 V2000
   -9.9486   -0.4485    0.0000 C   0  0  0  0  0  0  0  0  0  0  0  0
   -8.5448    0.0800    0.0000 C   0  0  0  0  0  0  0  0  0  0  0  0
   -7.3852   -0.8715    0.0000 C   0  0  0  0  0  0  0  0  0  0  0  0
   -5.9814   -0.3431    0.0000 N   0  0  0  0  0  0  0  0  0  0  0  0
   -5.7371    1.1369    0.0000 C   0  0  0  0  0  0  0  0  0  0  0  0
   -4.3333    1.6654    0.0000 C   0  0  0  0  0  0  0  0  0  0  0  0
   -3.1737    0.7138    0.0000 N   0  0  0  0  0  0  0  0  0  0  0  0
   -1.7699    1.2423    0.0000 C   0  0  0  0  0  0  0  0  0  0  0  0
   -0.6103    0.2908    0.0000 C   0  0  0  0  0  0  0  0  0  0  0  0
    0.7935    0.8192    0.0000 C   0  0  0  0  0  0  0  0  0  0  0  0
    1.9531   -0.1323    0.0000 C   0  0  0  0  0  0  0  0  0  0  0  0
    1.7088   -1.6123    0.0000 C   0  0  0  0  0  0  0  0  0  0  0  0
    2.8684   -2.5638    0.0000 C   0  0  0  0  0  0  0  0  0  0  0  0
    4.2722   -2.0354    0.0000 C   0  0  0  0  0  0  0  0  0  0  0  0
    4.5165   -0.5554    0.0000 C   0  0  0  0  0  0  0  0  0  0  0  0
    5.9203   -0.0269    0.0000 C   0  0  0  0  0  0  0  0  0  0  0  0
    7.0799   -0.9784    0.0000 O   0  0  0  0  0  0  0  0  0  0  0  0
    8.4837   -0.4500    0.0000 C   0  0  0  0  0  0  0  0  0  0  0  0
    6.1646    1.4531    0.0000 C   0  0  0  0  0  0  0  0  0  0  0  0
    5.0050    2.4046    0.0000 C   0  0  0  0  0  0  0  0  0  0  0  0
    3.6012    1.8761    0.0000 C   0  0  0  0  0  0  0  0  0  0  0  0
    3.3569    0.3962    0.0000 C   0  0  0  0  0  0  0  0  0  0  0  0
   -3.4180   -0.7661    0.0000 C   0  0  0  0  0  0  0  0  0  0  0  0
   -4.8218   -1.2946    0.0000 C   0  0  0  0  0  0  0  0  0  0  0  0
  1  2  1  0
  2  3  1  0
  3  4  1  0
  4  5  1  0
  5  6  1  0
  6  7  1  0
  7  8  1  0
  8  9  1  0
  9 10  1  0
 10 11  1  0
 11 12  1  0
 12 13  1  0
 13 14  1  0
 14 15  1  0
 15 16  2  0
 16 17  1  0
 17 18  1  0
 16 19  1  0
 19 20  2  0
 20 21  1  0
 21 22  2  0
  7 23  1  0
 23 24  1  0
 24  4  1  0
 22 11  1  0
 22 15  1  0
M  END
>  <Compound_Key>  (1074) 
24

>  <Ki>  (1074) 
42.5

>  <database>  (1074) 
NewLiterature

>  <Document_ChEMBL_ID>  (1074) 
10.1038/s41598-023-39687-w

$$$$

     RDKit          2D

 26 28  0  0  0  0  0  0  0  0999 V2000
   -9.3074    0.2609    0.0000 C   0  0  0  0  0  0  0  0  0  0  0  0
   -7.8768    0.7120    0.0000 C   0  0  0  0  0  0  0  0  0  0  0  0
   -6.7709   -0.3014    0.0000 C   0  0  0  0  0  0  0  0  0  0  0  0
   -7.0955   -1.7658    0.0000 C   0  0  0  0  0  0  0  0  0  0  0  0
   -8.5261   -2.2169    0.0000 C   0  0  0  0  0  0  0  0  0  0  0  0
   -5.3403    0.1497    0.0000 N   0  0  0  0  0  0  0  0  0  0  0  0
   -5.0157    1.6141    0.0000 C   0  0  0  0  0  0  0  0  0  0  0  0
   -3.5851    2.0652    0.0000 C   0  0  0  0  0  0  0  0  0  0  0  0
   -2.4791    1.0519    0.0000 N   0  0  0  0  0  0  0  0  0  0  0  0
   -1.0486    1.5029    0.0000 C   0  0  0  0  0  0  0  0  0  0  0  0
    0.0574    0.4896    0.0000 C   0  0  0  0  0  0  0  0  0  0  0  0
    1.4879    0.9407    0.0000 C   0  0  0  0  0  0  0  0  0  0  0  0
    2.5939   -0.0727    0.0000 C   0  0  0  0  0  0  0  0  0  0  0  0
    2.2692   -1.5372    0.0000 C   0  0  0  0  0  0  0  0  0  0  0  0
    3.3752   -2.5505    0.0000 C   0  0  0  0  0  0  0  0  0  0  0  0
    4.8057   -2.0994    0.0000 C   0  0  0  0  0  0  0  0  0  0  0  0
    5.1304   -0.6350    0.0000 C   0  0  0  0  0  0  0  0  0  0  0  0
    6.5609   -0.1839    0.0000 C   0  0  0  0  0  0  0  0  0  0  0  0
    7.6669   -1.1973    0.0000 O   0  0  0  0  0  0  0  0  0  0  0  0
    9.0974   -0.7462    0.0000 C   0  0  0  0  0  0  0  0  0  0  0  0
    6.8856    1.2805    0.0000 C   0  0  0  0  0  0  0  0  0  0  0  0
    5.7796    2.2939    0.0000 C   0  0  0  0  0  0  0  0  0  0  0  0
    4.3491    1.8428    0.0000 C   0  0  0  0  0  0  0  0  0  0  0  0
    4.0244    0.3784    0.0000 C   0  0  0  0  0  0  0  0  0  0  0  0
   -2.8038   -0.4126    0.0000 C   0  0  0  0  0  0  0  0  0  0  0  0
   -4.2344   -0.8637    0.0000 C   0  0  0  0  0  0  0  0  0  0  0  0
  1  2  1  0
  2  3  1  0
  3  4  1  0
  4  5  1  0
  3  6  1  0
  6  7  1  0
  7  8  1  0
  8  9  1  0
  9 10  1  0
 10 11  1  0
 11 12  1  0
 12 13  1  0
 13 14  1  0
 14 15  1  0
 15 16  1  0
 16 17  1  0
 17 18  2  0
 18 19  1  0
 19 20  1  0
 18 21  1  0
 21 22  2  0
 22 23  1  0
 23 24  2  0
  9 25  1  0
 25 26  1  0
 26  6  1  0
 24 13  1  0
 24 17  1  0
M  END
>  <Compound_Key>  (1075) 
25

>  <Ki>  (1075) 
12.7

>  <database>  (1075) 
NewLiterature

>  <Document_ChEMBL_ID>  (1075) 
10.1038/s41598-023-39688-w

$$$$

     RDKit          2D

 27 30  0  0  0  0  0  0  0  0999 V2000
   -9.4439   -0.8282    0.0000 C   0  0  0  0  0  0  0  0  0  0  0  0
   -8.0074   -1.2600    0.0000 O   0  0  0  0  0  0  0  0  0  0  0  0
   -6.9152   -0.2320    0.0000 C   0  0  0  0  0  0  0  0  0  0  0  0
   -7.2594    1.2280    0.0000 C   0  0  0  0  0  0  0  0  0  0  0  0
   -6.1671    2.2561    0.0000 C   0  0  0  0  0  0  0  0  0  0  0  0
   -4.7306    1.8242    0.0000 C   0  0  0  0  0  0  0  0  0  0  0  0
   -4.3864    0.3642    0.0000 C   0  0  0  0  0  0  0  0  0  0  0  0
   -5.4787   -0.6638    0.0000 C   0  0  0  0  0  0  0  0  0  0  0  0
   -5.1345   -2.1238    0.0000 C   0  0  0  0  0  0  0  0  0  0  0  0
   -3.6980   -2.5557    0.0000 C   0  0  0  0  0  0  0  0  0  0  0  0
   -2.6057   -1.5276    0.0000 C   0  0  0  0  0  0  0  0  0  0  0  0
   -2.9500   -0.0676    0.0000 C   0  0  0  0  0  0  0  0  0  0  0  0
   -1.8577    0.9604    0.0000 N   0  0  0  0  0  0  0  0  0  0  0  0
   -0.4212    0.5286    0.0000 C   0  0  0  0  0  0  0  0  0  0  0  0
    0.6711    1.5566    0.0000 C   0  0  0  0  0  0  0  0  0  0  0  0
    2.1075    1.1248    0.0000 N   0  0  0  0  0  0  0  0  0  0  0  0
    2.4518   -0.3352    0.0000 C   0  0  0  0  0  0  0  0  0  0  0  0
    3.8882   -0.7671    0.0000 C   0  0  0  0  0  0  0  0  0  0  0  0
    4.9805    0.2610    0.0000 N   0  0  0  0  0  0  0  0  0  0  0  0
    6.4170   -0.1709    0.0000 C   0  0  0  0  0  0  0  0  0  0  0  0
    6.7612   -1.6309    0.0000 C   0  0  0  0  0  0  0  0  0  0  0  0
    8.1977   -2.0627    0.0000 C   0  0  0  0  0  0  0  0  0  0  0  0
    9.2899   -1.0347    0.0000 C   0  0  0  0  0  0  0  0  0  0  0  0
    8.9457    0.4253    0.0000 C   0  0  0  0  0  0  0  0  0  0  0  0
    7.5092    0.8572    0.0000 C   0  0  0  0  0  0  0  0  0  0  0  0
    4.6363    1.7210    0.0000 C   0  0  0  0  0  0  0  0  0  0  0  0
    3.1998    2.1528    0.0000 C   0  0  0  0  0  0  0  0  0  0  0  0
  1  2  1  0
  2  3  1  0
  3  4  2  0
  4  5  1  0
  5  6  2  0
  6  7  1  0
  7  8  2  0
  8  9  1  0
  9 10  1  0
 10 11  1  0
 11 12  1  0
 12 13  1  0
 13 14  1  0
 14 15  1  0
 15 16  1  0
 16 17  1  0
 17 18  1  0
 18 19  1  0
 19 20  1  0
 20 21  1  0
 21 22  1  0
 22 23  1  0
 23 24  1  0
 24 25  1  0
 19 26  1  0
 26 27  1  0
  8  3  1  0
 27 16  1  0
 12  7  1  0
 25 20  1  0
M  END
>  <Compound_Key>  (1076) 
26

>  <Ki>  (1076) 
8.49

>  <database>  (1076) 
NewLiterature

>  <Document_ChEMBL_ID>  (1076) 
10.1038/s41598-023-39689-w

$$$$

     RDKit          2D

 27 30  0  0  0  0  0  0  0  0999 V2000
   -9.4439   -0.8282    0.0000 C   0  0  0  0  0  0  0  0  0  0  0  0
   -8.0074   -1.2600    0.0000 O   0  0  0  0  0  0  0  0  0  0  0  0
   -6.9152   -0.2320    0.0000 C   0  0  0  0  0  0  0  0  0  0  0  0
   -7.2594    1.2280    0.0000 C   0  0  0  0  0  0  0  0  0  0  0  0
   -6.1671    2.2561    0.0000 C   0  0  0  0  0  0  0  0  0  0  0  0
   -4.7306    1.8242    0.0000 C   0  0  0  0  0  0  0  0  0  0  0  0
   -4.3864    0.3642    0.0000 C   0  0  0  0  0  0  0  0  0  0  0  0
   -5.4787   -0.6638    0.0000 C   0  0  0  0  0  0  0  0  0  0  0  0
   -5.1345   -2.1238    0.0000 C   0  0  0  0  0  0  0  0  0  0  0  0
   -3.6980   -2.5557    0.0000 C   0  0  0  0  0  0  0  0  0  0  0  0
   -2.6057   -1.5276    0.0000 C   0  0  0  0  0  0  0  0  0  0  0  0
   -2.9500   -0.0676    0.0000 C   0  0  0  0  0  0  0  0  0  0  0  0
   -1.8577    0.9604    0.0000 N   0  0  0  0  0  0  0  0  0  0  0  0
   -0.4212    0.5286    0.0000 C   0  0  0  0  0  0  0  0  0  0  0  0
    0.6711    1.5566    0.0000 C   0  0  0  0  0  0  0  0  0  0  0  0
    2.1075    1.1248    0.0000 N   0  0  0  0  0  0  0  0  0  0  0  0
    2.4518   -0.3352    0.0000 C   0  0  0  0  0  0  0  0  0  0  0  0
    3.8882   -0.7671    0.0000 C   0  0  0  0  0  0  0  0  0  0  0  0
    4.9805    0.2610    0.0000 N   0  0  0  0  0  0  0  0  0  0  0  0
    6.4170   -0.1709    0.0000 C   0  0  0  0  0  0  0  0  0  0  0  0
    6.7612   -1.6309    0.0000 C   0  0  0  0  0  0  0  0  0  0  0  0
    8.1977   -2.0627    0.0000 C   0  0  0  0  0  0  0  0  0  0  0  0
    9.2899   -1.0347    0.0000 C   0  0  0  0  0  0  0  0  0  0  0  0
    8.9457    0.4253    0.0000 C   0  0  0  0  0  0  0  0  0  0  0  0
    7.5092    0.8572    0.0000 C   0  0  0  0  0  0  0  0  0  0  0  0
    4.6363    1.7210    0.0000 C   0  0  0  0  0  0  0  0  0  0  0  0
    3.1998    2.1528    0.0000 C   0  0  0  0  0  0  0  0  0  0  0  0
  1  2  1  0
  2  3  1  0
  3  4  2  0
  4  5  1  0
  5  6  2  0
  6  7  1  0
  7  8  2  0
  8  9  1  0
  9 10  1  0
 10 11  1  0
 11 12  1  0
 12 13  1  6
 13 14  1  0
 14 15  1  0
 15 16  1  0
 16 17  1  0
 17 18  1  0
 18 19  1  0
 19 20  1  0
 20 21  1  0
 21 22  1  0
 22 23  1  0
 23 24  1  0
 24 25  1  0
 19 26  1  0
 26 27  1  0
  8  3  1  0
 27 16  1  0
 12  7  1  0
 25 20  1  0
M  END
>  <Compound_Key>  (1077) 
(+)-R-26

>  <Ki>  (1077) 
14.4

>  <database>  (1077) 
NewLiterature

>  <Document_ChEMBL_ID>  (1077) 
10.1038/s41598-023-39690-w

$$$$

     RDKit          2D

 27 30  0  0  0  0  0  0  0  0999 V2000
   -9.4439   -0.8282    0.0000 C   0  0  0  0  0  0  0  0  0  0  0  0
   -8.0074   -1.2600    0.0000 O   0  0  0  0  0  0  0  0  0  0  0  0
   -6.9152   -0.2320    0.0000 C   0  0  0  0  0  0  0  0  0  0  0  0
   -7.2594    1.2280    0.0000 C   0  0  0  0  0  0  0  0  0  0  0  0
   -6.1671    2.2561    0.0000 C   0  0  0  0  0  0  0  0  0  0  0  0
   -4.7306    1.8242    0.0000 C   0  0  0  0  0  0  0  0  0  0  0  0
   -4.3864    0.3642    0.0000 C   0  0  0  0  0  0  0  0  0  0  0  0
   -5.4787   -0.6638    0.0000 C   0  0  0  0  0  0  0  0  0  0  0  0
   -5.1345   -2.1238    0.0000 C   0  0  0  0  0  0  0  0  0  0  0  0
   -3.6980   -2.5557    0.0000 C   0  0  0  0  0  0  0  0  0  0  0  0
   -2.6057   -1.5276    0.0000 C   0  0  0  0  0  0  0  0  0  0  0  0
   -2.9500   -0.0676    0.0000 C   0  0  0  0  0  0  0  0  0  0  0  0
   -1.8577    0.9604    0.0000 N   0  0  0  0  0  0  0  0  0  0  0  0
   -0.4212    0.5286    0.0000 C   0  0  0  0  0  0  0  0  0  0  0  0
    0.6711    1.5566    0.0000 C   0  0  0  0  0  0  0  0  0  0  0  0
    2.1075    1.1248    0.0000 N   0  0  0  0  0  0  0  0  0  0  0  0
    2.4518   -0.3352    0.0000 C   0  0  0  0  0  0  0  0  0  0  0  0
    3.8882   -0.7671    0.0000 C   0  0  0  0  0  0  0  0  0  0  0  0
    4.9805    0.2610    0.0000 N   0  0  0  0  0  0  0  0  0  0  0  0
    6.4170   -0.1709    0.0000 C   0  0  0  0  0  0  0  0  0  0  0  0
    6.7612   -1.6309    0.0000 C   0  0  0  0  0  0  0  0  0  0  0  0
    8.1977   -2.0627    0.0000 C   0  0  0  0  0  0  0  0  0  0  0  0
    9.2899   -1.0347    0.0000 C   0  0  0  0  0  0  0  0  0  0  0  0
    8.9457    0.4253    0.0000 C   0  0  0  0  0  0  0  0  0  0  0  0
    7.5092    0.8572    0.0000 C   0  0  0  0  0  0  0  0  0  0  0  0
    4.6363    1.7210    0.0000 C   0  0  0  0  0  0  0  0  0  0  0  0
    3.1998    2.1528    0.0000 C   0  0  0  0  0  0  0  0  0  0  0  0
  1  2  1  0
  2  3  1  0
  3  4  2  0
  4  5  1  0
  5  6  2  0
  6  7  1  0
  7  8  2  0
  8  9  1  0
  9 10  1  0
 10 11  1  0
 11 12  1  0
 12 13  1  1
 13 14  1  0
 14 15  1  0
 15 16  1  0
 16 17  1  0
 17 18  1  0
 18 19  1  0
 19 20  1  0
 20 21  1  0
 21 22  1  0
 22 23  1  0
 23 24  1  0
 24 25  1  0
 19 26  1  0
 26 27  1  0
  8  3  1  0
 27 16  1  0
 12  7  1  0
 25 20  1  0
M  END
>  <Compound_Key>  (1078) 
(-)-S-26

>  <Ki>  (1078) 
8.52

>  <database>  (1078) 
NewLiterature

>  <Document_ChEMBL_ID>  (1078) 
10.1038/s41598-023-39691-w

$$$$

     RDKit          2D

 28 31  0  0  0  0  0  0  0  0999 V2000
    6.0391   -4.4045    0.0000 C   0  0  0  0  0  0  0  0  0  0  0  0
    6.0684   -2.9048    0.0000 O   0  0  0  0  0  0  0  0  0  0  0  0
    4.7843   -2.1296    0.0000 C   0  0  0  0  0  0  0  0  0  0  0  0
    3.4709   -2.8541    0.0000 C   0  0  0  0  0  0  0  0  0  0  0  0
    2.1867   -2.0788    0.0000 C   0  0  0  0  0  0  0  0  0  0  0  0
    2.2160   -0.5791    0.0000 C   0  0  0  0  0  0  0  0  0  0  0  0
    3.5295    0.1454    0.0000 C   0  0  0  0  0  0  0  0  0  0  0  0
    4.8136   -0.6299    0.0000 C   0  0  0  0  0  0  0  0  0  0  0  0
    6.1271    0.0946    0.0000 C   0  0  0  0  0  0  0  0  0  0  0  0
    6.1564    1.5943    0.0000 C   0  0  0  0  0  0  0  0  0  0  0  0
    4.8722    2.3696    0.0000 C   0  0  0  0  0  0  0  0  0  0  0  0
    3.5588    1.6451    0.0000 C   0  0  0  0  0  0  0  0  0  0  0  0
    2.2746    2.4203    0.0000 N   0  0  0  0  0  0  0  0  0  0  0  0
    2.3039    3.9200    0.0000 C   0  0  0  0  0  0  0  0  0  0  0  0
    0.9612    1.6958    0.0000 C   0  0  0  0  0  0  0  0  0  0  0  0
   -0.3229    2.4711    0.0000 C   0  0  0  0  0  0  0  0  0  0  0  0
   -1.6364    1.7466    0.0000 N   0  0  0  0  0  0  0  0  0  0  0  0
   -2.9205    2.5218    0.0000 C   0  0  0  0  0  0  0  0  0  0  0  0
   -4.2340    1.7973    0.0000 C   0  0  0  0  0  0  0  0  0  0  0  0
   -4.2633    0.2976    0.0000 N   0  0  0  0  0  0  0  0  0  0  0  0
   -5.5767   -0.4269    0.0000 C   0  0  0  0  0  0  0  0  0  0  0  0
   -6.8608    0.3484    0.0000 C   0  0  0  0  0  0  0  0  0  0  0  0
   -8.1743   -0.3761    0.0000 C   0  0  0  0  0  0  0  0  0  0  0  0
   -8.2036   -1.8758    0.0000 C   0  0  0  0  0  0  0  0  0  0  0  0
   -6.9195   -2.6510    0.0000 C   0  0  0  0  0  0  0  0  0  0  0  0
   -5.6060   -1.9266    0.0000 C   0  0  0  0  0  0  0  0  0  0  0  0
   -2.9791   -0.4776    0.0000 C   0  0  0  0  0  0  0  0  0  0  0  0
   -1.6657    0.2469    0.0000 C   0  0  0  0  0  0  0  0  0  0  0  0
  1  2  1  0
  2  3  1  0
  3  4  2  0
  4  5  1  0
  5  6  2  0
  6  7  1  0
  7  8  2  0
  8  9  1  0
  9 10  1  0
 10 11  1  0
 11 12  1  0
 12 13  1  0
 13 14  1  0
 13 15  1  0
 15 16  1  0
 16 17  1  0
 17 18  1  0
 18 19  1  0
 19 20  1  0
 20 21  1  0
 21 22  1  0
 22 23  1  0
 23 24  1  0
 24 25  1  0
 25 26  1  0
 20 27  1  0
 27 28  1  0
  8  3  1  0
 28 17  1  0
 12  7  1  0
 26 21  1  0
M  END
>  <Compound_Key>  (1079) 
27

>  <Ki>  (1079) 
15.3

>  <database>  (1079) 
NewLiterature

>  <Document_ChEMBL_ID>  (1079) 
10.1038/s41598-023-39692-w

$$$$

     RDKit          2D

 27 30  0  0  0  0  0  0  0  0999 V2000
   -9.4439   -0.8282    0.0000 C   0  0  0  0  0  0  0  0  0  0  0  0
   -8.0074   -1.2600    0.0000 O   0  0  0  0  0  0  0  0  0  0  0  0
   -6.9152   -0.2320    0.0000 C   0  0  0  0  0  0  0  0  0  0  0  0
   -7.2594    1.2280    0.0000 C   0  0  0  0  0  0  0  0  0  0  0  0
   -6.1671    2.2561    0.0000 C   0  0  0  0  0  0  0  0  0  0  0  0
   -4.7306    1.8242    0.0000 C   0  0  0  0  0  0  0  0  0  0  0  0
   -4.3864    0.3642    0.0000 C   0  0  0  0  0  0  0  0  0  0  0  0
   -5.4787   -0.6638    0.0000 C   0  0  0  0  0  0  0  0  0  0  0  0
   -5.1345   -2.1238    0.0000 C   0  0  0  0  0  0  0  0  0  0  0  0
   -3.6980   -2.5557    0.0000 C   0  0  0  0  0  0  0  0  0  0  0  0
   -2.6057   -1.5276    0.0000 C   0  0  0  0  0  0  0  0  0  0  0  0
   -2.9500   -0.0676    0.0000 C   0  0  0  0  0  0  0  0  0  0  0  0
   -1.8577    0.9604    0.0000 O   0  0  0  0  0  0  0  0  0  0  0  0
   -0.4212    0.5286    0.0000 C   0  0  0  0  0  0  0  0  0  0  0  0
    0.6711    1.5566    0.0000 C   0  0  0  0  0  0  0  0  0  0  0  0
    2.1075    1.1248    0.0000 N   0  0  0  0  0  0  0  0  0  0  0  0
    2.4518   -0.3352    0.0000 C   0  0  0  0  0  0  0  0  0  0  0  0
    3.8882   -0.7671    0.0000 C   0  0  0  0  0  0  0  0  0  0  0  0
    4.9805    0.2610    0.0000 N   0  0  0  0  0  0  0  0  0  0  0  0
    6.4170   -0.1709    0.0000 C   0  0  0  0  0  0  0  0  0  0  0  0
    6.7612   -1.6309    0.0000 C   0  0  0  0  0  0  0  0  0  0  0  0
    8.1977   -2.0627    0.0000 C   0  0  0  0  0  0  0  0  0  0  0  0
    9.2899   -1.0347    0.0000 C   0  0  0  0  0  0  0  0  0  0  0  0
    8.9457    0.4253    0.0000 C   0  0  0  0  0  0  0  0  0  0  0  0
    7.5092    0.8572    0.0000 C   0  0  0  0  0  0  0  0  0  0  0  0
    4.6363    1.7210    0.0000 C   0  0  0  0  0  0  0  0  0  0  0  0
    3.1998    2.1528    0.0000 C   0  0  0  0  0  0  0  0  0  0  0  0
  1  2  1  0
  2  3  1  0
  3  4  2  0
  4  5  1  0
  5  6  2  0
  6  7  1  0
  7  8  2  0
  8  9  1  0
  9 10  1  0
 10 11  1  0
 11 12  1  0
 12 13  1  0
 13 14  1  0
 14 15  1  0
 15 16  1  0
 16 17  1  0
 17 18  1  0
 18 19  1  0
 19 20  1  0
 20 21  1  0
 21 22  1  0
 22 23  1  0
 23 24  1  0
 24 25  1  0
 19 26  1  0
 26 27  1  0
  8  3  1  0
 27 16  1  0
 12  7  1  0
 25 20  1  0
M  END
>  <Compound_Key>  (1080) 
28

>  <Ki>  (1080) 
9.03

>  <database>  (1080) 
NewLiterature

>  <Document_ChEMBL_ID>  (1080) 
10.1038/s41598-023-39693-w

$$$$

     RDKit          2D

 27 30  0  0  0  0  0  0  0  0999 V2000
   -9.4439   -0.8282    0.0000 C   0  0  0  0  0  0  0  0  0  0  0  0
   -8.0074   -1.2600    0.0000 O   0  0  0  0  0  0  0  0  0  0  0  0
   -6.9152   -0.2320    0.0000 C   0  0  0  0  0  0  0  0  0  0  0  0
   -7.2594    1.2280    0.0000 C   0  0  0  0  0  0  0  0  0  0  0  0
   -6.1671    2.2561    0.0000 C   0  0  0  0  0  0  0  0  0  0  0  0
   -4.7306    1.8242    0.0000 C   0  0  0  0  0  0  0  0  0  0  0  0
   -4.3864    0.3642    0.0000 C   0  0  0  0  0  0  0  0  0  0  0  0
   -5.4787   -0.6638    0.0000 C   0  0  0  0  0  0  0  0  0  0  0  0
   -5.1345   -2.1238    0.0000 O   0  0  0  0  0  0  0  0  0  0  0  0
   -3.6980   -2.5557    0.0000 C   0  0  0  0  0  0  0  0  0  0  0  0
   -2.6057   -1.5276    0.0000 C   0  0  0  0  0  0  0  0  0  0  0  0
   -2.9500   -0.0676    0.0000 C   0  0  0  0  0  0  0  0  0  0  0  0
   -1.8577    0.9604    0.0000 O   0  0  0  0  0  0  0  0  0  0  0  0
   -0.4212    0.5286    0.0000 C   0  0  0  0  0  0  0  0  0  0  0  0
    0.6711    1.5566    0.0000 C   0  0  0  0  0  0  0  0  0  0  0  0
    2.1075    1.1248    0.0000 N   0  0  0  0  0  0  0  0  0  0  0  0
    2.4518   -0.3352    0.0000 C   0  0  0  0  0  0  0  0  0  0  0  0
    3.8882   -0.7671    0.0000 C   0  0  0  0  0  0  0  0  0  0  0  0
    4.9805    0.2610    0.0000 N   0  0  0  0  0  0  0  0  0  0  0  0
    6.4170   -0.1709    0.0000 C   0  0  0  0  0  0  0  0  0  0  0  0
    6.7612   -1.6309    0.0000 C   0  0  0  0  0  0  0  0  0  0  0  0
    8.1977   -2.0627    0.0000 C   0  0  0  0  0  0  0  0  0  0  0  0
    9.2899   -1.0347    0.0000 C   0  0  0  0  0  0  0  0  0  0  0  0
    8.9457    0.4253    0.0000 C   0  0  0  0  0  0  0  0  0  0  0  0
    7.5092    0.8572    0.0000 C   0  0  0  0  0  0  0  0  0  0  0  0
    4.6363    1.7210    0.0000 C   0  0  0  0  0  0  0  0  0  0  0  0
    3.1998    2.1528    0.0000 C   0  0  0  0  0  0  0  0  0  0  0  0
  1  2  1  0
  2  3  1  0
  3  4  2  0
  4  5  1  0
  5  6  2  0
  6  7  1  0
  7  8  2  0
  8  9  1  0
  9 10  1  0
 10 11  1  0
 11 12  1  0
 12 13  1  0
 13 14  1  0
 14 15  1  0
 15 16  1  0
 16 17  1  0
 17 18  1  0
 18 19  1  0
 19 20  1  0
 20 21  1  0
 21 22  1  0
 22 23  1  0
 23 24  1  0
 24 25  1  0
 19 26  1  0
 26 27  1  0
  8  3  1  0
 27 16  1  0
 12  7  1  0
 25 20  1  0
M  END
>  <Compound_Key>  (1081) 
29

>  <Ki>  (1081) 
9.72

>  <database>  (1081) 
NewLiterature

>  <Document_ChEMBL_ID>  (1081) 
10.1038/s41598-023-39694-w

$$$$

     RDKit          2D

 27 30  0  0  0  0  0  0  0  0999 V2000
   -9.4439   -0.8282    0.0000 C   0  0  0  0  0  0  0  0  0  0  0  0
   -8.0074   -1.2600    0.0000 O   0  0  0  0  0  0  0  0  0  0  0  0
   -6.9152   -0.2320    0.0000 C   0  0  0  0  0  0  0  0  0  0  0  0
   -7.2594    1.2280    0.0000 C   0  0  0  0  0  0  0  0  0  0  0  0
   -6.1671    2.2561    0.0000 C   0  0  0  0  0  0  0  0  0  0  0  0
   -4.7306    1.8242    0.0000 C   0  0  0  0  0  0  0  0  0  0  0  0
   -4.3864    0.3642    0.0000 C   0  0  0  0  0  0  0  0  0  0  0  0
   -2.9500   -0.0676    0.0000 C   0  0  0  0  0  0  0  0  0  0  0  0
   -1.8577    0.9604    0.0000 N   0  0  0  0  0  0  0  0  0  0  0  0
   -0.4212    0.5286    0.0000 C   0  0  0  0  0  0  0  0  0  0  0  0
    0.6711    1.5566    0.0000 C   0  0  0  0  0  0  0  0  0  0  0  0
    2.1075    1.1248    0.0000 N   0  0  0  0  0  0  0  0  0  0  0  0
    2.4518   -0.3352    0.0000 C   0  0  0  0  0  0  0  0  0  0  0  0
    3.8882   -0.7671    0.0000 C   0  0  0  0  0  0  0  0  0  0  0  0
    4.9805    0.2610    0.0000 N   0  0  0  0  0  0  0  0  0  0  0  0
    6.4170   -0.1709    0.0000 C   0  0  0  0  0  0  0  0  0  0  0  0
    6.7612   -1.6309    0.0000 C   0  0  0  0  0  0  0  0  0  0  0  0
    8.1977   -2.0627    0.0000 C   0  0  0  0  0  0  0  0  0  0  0  0
    9.2899   -1.0347    0.0000 C   0  0  0  0  0  0  0  0  0  0  0  0
    8.9457    0.4253    0.0000 C   0  0  0  0  0  0  0  0  0  0  0  0
    7.5092    0.8572    0.0000 C   0  0  0  0  0  0  0  0  0  0  0  0
    4.6363    1.7210    0.0000 C   0  0  0  0  0  0  0  0  0  0  0  0
    3.1998    2.1528    0.0000 C   0  0  0  0  0  0  0  0  0  0  0  0
   -2.6057   -1.5276    0.0000 C   0  0  0  0  0  0  0  0  0  0  0  0
   -3.6980   -2.5557    0.0000 C   0  0  0  0  0  0  0  0  0  0  0  0
   -5.1345   -2.1238    0.0000 C   0  0  0  0  0  0  0  0  0  0  0  0
   -5.4787   -0.6638    0.0000 C   0  0  0  0  0  0  0  0  0  0  0  0
  1  2  1  0
  2  3  1  0
  3  4  2  0
  4  5  1  0
  5  6  2  0
  6  7  1  0
  7  8  2  0
  8  9  1  0
  9 10  1  0
 10 11  1  0
 11 12  1  0
 12 13  1  0
 13 14  1  0
 14 15  1  0
 15 16  1  0
 16 17  1  0
 17 18  1  0
 18 19  1  0
 19 20  1  0
 20 21  1  0
 15 22  1  0
 22 23  1  0
  8 24  1  0
 24 25  2  0
 25 26  1  0
 26 27  2  0
 27  3  1  0
 27  7  1  0
 23 12  1  0
 21 16  1  0
M  END
>  <Compound_Key>  (1082) 
30

>  <Ki>  (1082) 
18.5

>  <database>  (1082) 
NewLiterature

>  <Document_ChEMBL_ID>  (1082) 
10.1038/s41598-023-39695-w

$$$$

     RDKit          2D

 27 30  0  0  0  0  0  0  0  0999 V2000
   -9.4439   -0.8282    0.0000 C   0  0  0  0  0  0  0  0  0  0  0  0
   -8.0074   -1.2600    0.0000 O   0  0  0  0  0  0  0  0  0  0  0  0
   -6.9152   -0.2320    0.0000 C   0  0  0  0  0  0  0  0  0  0  0  0
   -7.2594    1.2280    0.0000 C   0  0  0  0  0  0  0  0  0  0  0  0
   -6.1671    2.2561    0.0000 C   0  0  0  0  0  0  0  0  0  0  0  0
   -4.7306    1.8242    0.0000 C   0  0  0  0  0  0  0  0  0  0  0  0
   -4.3864    0.3642    0.0000 C   0  0  0  0  0  0  0  0  0  0  0  0
   -2.9500   -0.0676    0.0000 C   0  0  0  0  0  0  0  0  0  0  0  0
   -1.8577    0.9604    0.0000 O   0  0  0  0  0  0  0  0  0  0  0  0
   -0.4212    0.5286    0.0000 C   0  0  0  0  0  0  0  0  0  0  0  0
    0.6711    1.5566    0.0000 C   0  0  0  0  0  0  0  0  0  0  0  0
    2.1075    1.1248    0.0000 N   0  0  0  0  0  0  0  0  0  0  0  0
    2.4518   -0.3352    0.0000 C   0  0  0  0  0  0  0  0  0  0  0  0
    3.8882   -0.7671    0.0000 C   0  0  0  0  0  0  0  0  0  0  0  0
    4.9805    0.2610    0.0000 N   0  0  0  0  0  0  0  0  0  0  0  0
    6.4170   -0.1709    0.0000 C   0  0  0  0  0  0  0  0  0  0  0  0
    6.7612   -1.6309    0.0000 C   0  0  0  0  0  0  0  0  0  0  0  0
    8.1977   -2.0627    0.0000 C   0  0  0  0  0  0  0  0  0  0  0  0
    9.2899   -1.0347    0.0000 C   0  0  0  0  0  0  0  0  0  0  0  0
    8.9457    0.4253    0.0000 C   0  0  0  0  0  0  0  0  0  0  0  0
    7.5092    0.8572    0.0000 C   0  0  0  0  0  0  0  0  0  0  0  0
    4.6363    1.7210    0.0000 C   0  0  0  0  0  0  0  0  0  0  0  0
    3.1998    2.1528    0.0000 C   0  0  0  0  0  0  0  0  0  0  0  0
   -2.6057   -1.5276    0.0000 C   0  0  0  0  0  0  0  0  0  0  0  0
   -3.6980   -2.5557    0.0000 C   0  0  0  0  0  0  0  0  0  0  0  0
   -5.1345   -2.1238    0.0000 C   0  0  0  0  0  0  0  0  0  0  0  0
   -5.4787   -0.6638    0.0000 C   0  0  0  0  0  0  0  0  0  0  0  0
  1  2  1  0
  2  3  1  0
  3  4  2  0
  4  5  1  0
  5  6  2  0
  6  7  1  0
  7  8  2  0
  8  9  1  0
  9 10  1  0
 10 11  1  0
 11 12  1  0
 12 13  1  0
 13 14  1  0
 14 15  1  0
 15 16  1  0
 16 17  1  0
 17 18  1  0
 18 19  1  0
 19 20  1  0
 20 21  1  0
 15 22  1  0
 22 23  1  0
  8 24  1  0
 24 25  2  0
 25 26  1  0
 26 27  2  0
 27  3  1  0
 27  7  1  0
 23 12  1  0
 21 16  1  0
M  END
>  <Compound_Key>  (1083) 
31

>  <Ki>  (1083) 
2.4

>  <database>  (1083) 
NewLiterature

>  <Document_ChEMBL_ID>  (1083) 
10.1038/s41598-023-39696-w

$$$$

     RDKit          2D

 28 32  0  0  0  0  0  0  0  0999 V2000
    7.7666   -1.0772    0.0000 C   0  0  0  0  0  0  0  0  0  0  0  0
    6.9721   -2.3495    0.0000 C   0  0  0  0  0  0  0  0  0  0  0  0
    5.4730   -2.2976    0.0000 C   0  0  0  0  0  0  0  0  0  0  0  0
    4.7684   -0.9733    0.0000 C   0  0  0  0  0  0  0  0  0  0  0  0
    5.5630    0.2990    0.0000 C   0  0  0  0  0  0  0  0  0  0  0  0
    7.0621    0.2470    0.0000 C   0  0  0  0  0  0  0  0  0  0  0  0
    4.5984    1.4477    0.0000 C   0  0  0  0  0  0  0  0  0  0  0  0
    4.8068    2.9332    0.0000 C   0  0  0  0  0  0  0  0  0  0  0  0
    3.6245    3.8564    0.0000 C   0  0  0  0  0  0  0  0  0  0  0  0
    2.2339    3.2940    0.0000 C   0  0  0  0  0  0  0  0  0  0  0  0
    2.0255    1.8086    0.0000 C   0  0  0  0  0  0  0  0  0  0  0  0
    3.2078    0.8854    0.0000 C   0  0  0  0  0  0  0  0  0  0  0  0
    3.3129   -0.6109    0.0000 C   0  0  0  0  0  0  0  0  0  0  0  0
    2.1641   -1.5754    0.0000 C   0  0  0  0  0  0  0  0  0  0  0  0
    0.7544   -1.0628    0.0000 C   0  0  0  0  0  0  0  0  0  0  0  0
   -0.3944   -2.0273    0.0000 C   0  0  0  0  0  0  0  0  0  0  0  0
   -1.8041   -1.5147    0.0000 N   0  0  0  0  0  0  0  0  0  0  0  0
   -2.0650   -0.0375    0.0000 C   0  0  0  0  0  0  0  0  0  0  0  0
   -3.4746    0.4751    0.0000 C   0  0  0  0  0  0  0  0  0  0  0  0
   -4.6234   -0.4894    0.0000 N   0  0  0  0  0  0  0  0  0  0  0  0
   -6.0331    0.0232    0.0000 C   0  0  0  0  0  0  0  0  0  0  0  0
   -6.2940    1.5003    0.0000 C   0  0  0  0  0  0  0  0  0  0  0  0
   -7.7037    2.0129    0.0000 C   0  0  0  0  0  0  0  0  0  0  0  0
   -8.8525    1.0484    0.0000 C   0  0  0  0  0  0  0  0  0  0  0  0
   -8.5916   -0.4287    0.0000 C   0  0  0  0  0  0  0  0  0  0  0  0
   -7.1819   -0.9413    0.0000 C   0  0  0  0  0  0  0  0  0  0  0  0
   -4.3625   -1.9666    0.0000 C   0  0  0  0  0  0  0  0  0  0  0  0
   -2.9528   -2.4792    0.0000 C   0  0  0  0  0  0  0  0  0  0  0  0
  1  2  2  0
  2  3  1  0
  3  4  2  0
  4  5  1  0
  5  6  2  0
  5  7  1  0
  7  8  2  0
  8  9  1  0
  9 10  2  0
 10 11  1  0
 11 12  2  0
 12 13  1  0
 13 14  1  0
 14 15  1  0
 15 16  1  0
 16 17  1  0
 17 18  1  0
 18 19  1  0
 19 20  1  0
 20 21  1  0
 21 22  1  0
 22 23  1  0
 23 24  1  0
 24 25  1  0
 25 26  1  0
 20 27  1  0
 27 28  1  0
  6  1  1  0
 12  7  1  0
 28 17  1  0
 13  4  1  0
 26 21  1  0
M  END
>  <Compound_Key>  (1084) 
32

>  <Ki>  (1084) 
12.6

>  <database>  (1084) 
NewLiterature

>  <Document_ChEMBL_ID>  (1084) 
10.1038/s41598-023-39697-w

$$$$

     RDKit          2D

 26 29  0  0  0  0  0  0  0  0999 V2000
    4.8924   -2.5422    0.0000 O   0  0  0  0  0  0  0  0  0  0  0  0
    4.6633   -1.0598    0.0000 C   0  0  0  0  0  0  0  0  0  0  0  0
    5.8325   -0.1202    0.0000 C   0  0  0  0  0  0  0  0  0  0  0  0
    7.2309   -0.6630    0.0000 C   0  0  0  0  0  0  0  0  0  0  0  0
    8.4001    0.2766    0.0000 C   0  0  0  0  0  0  0  0  0  0  0  0
    8.1710    1.7590    0.0000 C   0  0  0  0  0  0  0  0  0  0  0  0
    6.7727    2.3018    0.0000 C   0  0  0  0  0  0  0  0  0  0  0  0
    5.6034    1.3622    0.0000 C   0  0  0  0  0  0  0  0  0  0  0  0
    4.2051    1.9050    0.0000 C   0  0  0  0  0  0  0  0  0  0  0  0
    3.0358    0.9654    0.0000 C   0  0  0  0  0  0  0  0  0  0  0  0
    3.2649   -0.5170    0.0000 N   0  0  0  0  0  0  0  0  0  0  0  0
    2.0957   -1.4566    0.0000 C   0  0  0  0  0  0  0  0  0  0  0  0
    0.6973   -0.9138    0.0000 C   0  0  0  0  0  0  0  0  0  0  0  0
   -0.4719   -1.8534    0.0000 C   0  0  0  0  0  0  0  0  0  0  0  0
   -1.8703   -1.3106    0.0000 N   0  0  0  0  0  0  0  0  0  0  0  0
   -2.0993    0.1718    0.0000 C   0  0  0  0  0  0  0  0  0  0  0  0
   -3.4977    0.7146    0.0000 C   0  0  0  0  0  0  0  0  0  0  0  0
   -4.6669   -0.2250    0.0000 N   0  0  0  0  0  0  0  0  0  0  0  0
   -6.0653    0.3178    0.0000 C   0  0  0  0  0  0  0  0  0  0  0  0
   -6.2944    1.8002    0.0000 C   0  0  0  0  0  0  0  0  0  0  0  0
   -7.6927    2.3430    0.0000 C   0  0  0  0  0  0  0  0  0  0  0  0
   -8.8620    1.4034    0.0000 C   0  0  0  0  0  0  0  0  0  0  0  0
   -8.6329   -0.0790    0.0000 C   0  0  0  0  0  0  0  0  0  0  0  0
   -7.2345   -0.6218    0.0000 C   0  0  0  0  0  0  0  0  0  0  0  0
   -4.4379   -1.7074    0.0000 C   0  0  0  0  0  0  0  0  0  0  0  0
   -3.0395   -2.2502    0.0000 C   0  0  0  0  0  0  0  0  0  0  0  0
  1  2  2  0
  2  3  1  0
  3  4  2  0
  4  5  1  0
  5  6  2  0
  6  7  1  0
  7  8  2  0
  8  9  1  0
  9 10  1  0
 10 11  1  0
 11 12  1  0
 12 13  1  0
 13 14  1  0
 14 15  1  0
 15 16  1  0
 16 17  1  0
 17 18  1  0
 18 19  1  0
 19 20  1  0
 20 21  1  0
 21 22  1  0
 22 23  1  0
 23 24  1  0
 18 25  1  0
 25 26  1  0
 11  2  1  0
 26 15  1  0
  8  3  1  0
 24 19  1  0
M  END
>  <Compound_Key>  (1085) 
34

>  <Ki>  (1085) 
26.6

>  <database>  (1085) 
NewLiterature

>  <Document_ChEMBL_ID>  (1085) 
10.1038/s41598-023-39699-w

$$$$

     RDKit          2D

 26 29  0  0  0  0  0  0  0  0999 V2000
   -5.6445    2.9619    0.0000 O   0  0  0  0  0  0  0  0  0  0  0  0
   -5.4433    1.4755    0.0000 C   0  0  0  0  0  0  0  0  0  0  0  0
   -6.6300    0.5580    0.0000 C   0  0  0  0  0  0  0  0  0  0  0  0
   -6.4288   -0.9284    0.0000 O   0  0  0  0  0  0  0  0  0  0  0  0
   -5.0408   -1.4974    0.0000 C   0  0  0  0  0  0  0  0  0  0  0  0
   -4.8396   -2.9838    0.0000 C   0  0  0  0  0  0  0  0  0  0  0  0
   -3.4517   -3.5528    0.0000 C   0  0  0  0  0  0  0  0  0  0  0  0
   -2.2650   -2.6353    0.0000 C   0  0  0  0  0  0  0  0  0  0  0  0
   -2.4663   -1.1489    0.0000 N   0  0  0  0  0  0  0  0  0  0  0  0
   -3.8542   -0.5799    0.0000 C   0  0  0  0  0  0  0  0  0  0  0  0
   -4.0554    0.9065    0.0000 N   0  0  0  0  0  0  0  0  0  0  0  0
   -2.8687    1.8240    0.0000 C   0  0  0  0  0  0  0  0  0  0  0  0
   -1.4808    1.2550    0.0000 C   0  0  0  0  0  0  0  0  0  0  0  0
   -0.2941    2.1725    0.0000 C   0  0  0  0  0  0  0  0  0  0  0  0
    1.0938    1.6035    0.0000 N   0  0  0  0  0  0  0  0  0  0  0  0
    1.2950    0.1171    0.0000 C   0  0  0  0  0  0  0  0  0  0  0  0
    2.6829   -0.4519    0.0000 C   0  0  0  0  0  0  0  0  0  0  0  0
    3.8696    0.4656    0.0000 N   0  0  0  0  0  0  0  0  0  0  0  0
    5.2575   -0.1034    0.0000 C   0  0  0  0  0  0  0  0  0  0  0  0
    5.4587   -1.5898    0.0000 C   0  0  0  0  0  0  0  0  0  0  0  0
    6.8466   -2.1588    0.0000 C   0  0  0  0  0  0  0  0  0  0  0  0
    8.0333   -1.2413    0.0000 C   0  0  0  0  0  0  0  0  0  0  0  0
    7.8321    0.2451    0.0000 C   0  0  0  0  0  0  0  0  0  0  0  0
    6.4442    0.8141    0.0000 C   0  0  0  0  0  0  0  0  0  0  0  0
    3.6684    1.9520    0.0000 C   0  0  0  0  0  0  0  0  0  0  0  0
    2.2805    2.5210    0.0000 C   0  0  0  0  0  0  0  0  0  0  0  0
  1  2  2  0
  2  3  1  0
  3  4  1  0
  4  5  1  0
  5  6  2  0
  6  7  1  0
  7  8  2  0
  8  9  1  0
  9 10  2  0
 10 11  1  0
 11 12  1  0
 12 13  1  0
 13 14  1  0
 14 15  1  0
 15 16  1  0
 16 17  1  0
 17 18  1  0
 18 19  1  0
 19 20  1  0
 20 21  1  0
 21 22  1  0
 22 23  1  0
 23 24  1  0
 18 25  1  0
 25 26  1  0
 11  2  1  0
 26 15  1  0
 10  5  1  0
 24 19  1  0
M  END
>  <Compound_Key>  (1086) 
35

>  <Ki>  (1086) 
16.0

>  <database>  (1086) 
NewLiterature

>  <Document_ChEMBL_ID>  (1086) 
10.1038/s41598-023-39700-w

$$$$

     RDKit          2D

 27 30  0  0  0  0  0  0  0  0999 V2000
   -9.0933   -2.1389    0.0000 C   0  0  0  0  0  0  0  0  0  0  0  0
   -9.0933   -0.6389    0.0000 C   0  0  0  0  0  0  0  0  0  0  0  0
   -7.7942    0.1111    0.0000 C   0  0  0  0  0  0  0  0  0  0  0  0
   -6.4952   -0.6389    0.0000 C   0  0  0  0  0  0  0  0  0  0  0  0
   -5.1962    0.1111    0.0000 C   0  0  0  0  0  0  0  0  0  0  0  0
   -3.8971   -0.6389    0.0000 C   0  0  0  0  0  0  0  0  0  0  0  0
   -2.5981    0.1111    0.0000 C   0  0  0  0  0  0  0  0  0  0  0  0
   -2.5981    1.6111    0.0000 C   0  0  0  0  0  0  0  0  0  0  0  0
   -1.2990    2.3611    0.0000 C   0  0  0  0  0  0  0  0  0  0  0  0
    0.0000    1.6111    0.0000 C   0  0  0  0  0  0  0  0  0  0  0  0
    1.2990    2.3611    0.0000 C   0  0  0  0  0  0  0  0  0  0  0  0
    2.5981    1.6111    0.0000 N   0  0  0  0  0  0  0  0  0  0  0  0
    2.5981    0.1111    0.0000 C   0  0  0  0  0  0  0  0  0  0  0  0
    3.8971   -0.6389    0.0000 C   0  0  0  0  0  0  0  0  0  0  0  0
    5.1962    0.1111    0.0000 N   0  0  0  0  0  0  0  0  0  0  0  0
    6.4952   -0.6389    0.0000 C   0  0  0  0  0  0  0  0  0  0  0  0
    6.4952   -2.1389    0.0000 C   0  0  0  0  0  0  0  0  0  0  0  0
    7.7942   -2.8889    0.0000 C   0  0  0  0  0  0  0  0  0  0  0  0
    9.0933   -2.1389    0.0000 C   0  0  0  0  0  0  0  0  0  0  0  0
    9.0933   -0.6389    0.0000 C   0  0  0  0  0  0  0  0  0  0  0  0
    7.7942    0.1111    0.0000 C   0  0  0  0  0  0  0  0  0  0  0  0
    5.1962    1.6111    0.0000 C   0  0  0  0  0  0  0  0  0  0  0  0
    3.8971    2.3611    0.0000 C   0  0  0  0  0  0  0  0  0  0  0  0
   -3.8971    2.3611    0.0000 C   0  0  0  0  0  0  0  0  0  0  0  0
   -5.1962    1.6111    0.0000 C   0  0  0  0  0  0  0  0  0  0  0  0
   -6.4952   -2.1389    0.0000 C   0  0  0  0  0  0  0  0  0  0  0  0
   -7.7942   -2.8889    0.0000 C   0  0  0  0  0  0  0  0  0  0  0  0
  1  2  2  0
  2  3  1  0
  3  4  2  0
  5  4  1  6
  5  6  1  0
  6  7  1  0
  7  8  1  0
  8  9  1  6
  9 10  1  0
 10 11  1  0
 11 12  1  0
 12 13  1  0
 13 14  1  0
 14 15  1  0
 15 16  1  0
 16 17  1  0
 17 18  1  0
 18 19  1  0
 19 20  1  0
 20 21  1  0
 15 22  1  0
 22 23  1  0
  8 24  1  0
 24 25  1  0
  4 26  1  0
 26 27  2  0
 27  1  1  0
 25  5  1  0
 23 12  1  0
 21 16  1  0
M  END
>  <Compound_Key>  (1087) 
36cis

>  <Ki>  (1087) 
3.66

>  <database>  (1087) 
NewLiterature

>  <Document_ChEMBL_ID>  (1087) 
10.1038/s41598-023-39701-w

$$$$

     RDKit          2D

 27 30  0  0  0  0  0  0  0  0999 V2000
   -9.0933   -2.1389    0.0000 C   0  0  0  0  0  0  0  0  0  0  0  0
   -9.0933   -0.6389    0.0000 C   0  0  0  0  0  0  0  0  0  0  0  0
   -7.7942    0.1111    0.0000 C   0  0  0  0  0  0  0  0  0  0  0  0
   -6.4952   -0.6389    0.0000 C   0  0  0  0  0  0  0  0  0  0  0  0
   -5.1962    0.1111    0.0000 C   0  0  0  0  0  0  0  0  0  0  0  0
   -3.8971   -0.6389    0.0000 C   0  0  0  0  0  0  0  0  0  0  0  0
   -2.5981    0.1111    0.0000 C   0  0  0  0  0  0  0  0  0  0  0  0
   -2.5981    1.6111    0.0000 C   0  0  0  0  0  0  0  0  0  0  0  0
   -1.2990    2.3611    0.0000 C   0  0  0  0  0  0  0  0  0  0  0  0
    0.0000    1.6111    0.0000 C   0  0  0  0  0  0  0  0  0  0  0  0
    1.2990    2.3611    0.0000 C   0  0  0  0  0  0  0  0  0  0  0  0
    2.5981    1.6111    0.0000 N   0  0  0  0  0  0  0  0  0  0  0  0
    2.5981    0.1111    0.0000 C   0  0  0  0  0  0  0  0  0  0  0  0
    3.8971   -0.6389    0.0000 C   0  0  0  0  0  0  0  0  0  0  0  0
    5.1962    0.1111    0.0000 N   0  0  0  0  0  0  0  0  0  0  0  0
    6.4952   -0.6389    0.0000 C   0  0  0  0  0  0  0  0  0  0  0  0
    6.4952   -2.1389    0.0000 C   0  0  0  0  0  0  0  0  0  0  0  0
    7.7942   -2.8889    0.0000 C   0  0  0  0  0  0  0  0  0  0  0  0
    9.0933   -2.1389    0.0000 C   0  0  0  0  0  0  0  0  0  0  0  0
    9.0933   -0.6389    0.0000 C   0  0  0  0  0  0  0  0  0  0  0  0
    7.7942    0.1111    0.0000 C   0  0  0  0  0  0  0  0  0  0  0  0
    5.1962    1.6111    0.0000 C   0  0  0  0  0  0  0  0  0  0  0  0
    3.8971    2.3611    0.0000 C   0  0  0  0  0  0  0  0  0  0  0  0
   -3.8971    2.3611    0.0000 C   0  0  0  0  0  0  0  0  0  0  0  0
   -5.1962    1.6111    0.0000 C   0  0  0  0  0  0  0  0  0  0  0  0
   -6.4952   -2.1389    0.0000 C   0  0  0  0  0  0  0  0  0  0  0  0
   -7.7942   -2.8889    0.0000 C   0  0  0  0  0  0  0  0  0  0  0  0
  1  2  2  0
  2  3  1  0
  3  4  2  0
  5  4  1  6
  5  6  1  0
  6  7  1  0
  7  8  1  0
  8  9  1  1
  9 10  1  0
 10 11  1  0
 11 12  1  0
 12 13  1  0
 13 14  1  0
 14 15  1  0
 15 16  1  0
 16 17  1  0
 17 18  1  0
 18 19  1  0
 19 20  1  0
 20 21  1  0
 15 22  1  0
 22 23  1  0
  8 24  1  0
 24 25  1  0
  4 26  1  0
 26 27  2  0
 27  1  1  0
 25  5  1  0
 23 12  1  0
 21 16  1  0
M  END
>  <Compound_Key>  (1088) 
36trans

>  <Ki>  (1088) 
4.77

>  <database>  (1088) 
NewLiterature

>  <Document_ChEMBL_ID>  (1088) 
10.1038/s41598-023-39702-w

$$$$

     RDKit          2D

 29 32  0  0  0  0  0  0  0  0999 V2000
  -11.0102   -1.4491    0.0000 C   0  0  0  0  0  0  0  0  0  0  0  0
   -9.7479   -2.2594    0.0000 O   0  0  0  0  0  0  0  0  0  0  0  0
   -8.4150   -1.5714    0.0000 C   0  0  0  0  0  0  0  0  0  0  0  0
   -8.3444   -0.0730    0.0000 C   0  0  0  0  0  0  0  0  0  0  0  0
   -7.0116    0.6150    0.0000 C   0  0  0  0  0  0  0  0  0  0  0  0
   -5.7492   -0.1952    0.0000 C   0  0  0  0  0  0  0  0  0  0  0  0
   -4.4164    0.4928    0.0000 C   0  0  0  0  0  0  0  0  0  0  0  0
   -3.1540   -0.3175    0.0000 C   0  0  0  0  0  0  0  0  0  0  0  0
   -1.8212    0.3706    0.0000 C   0  0  0  0  0  0  0  0  0  0  0  0
   -1.7506    1.8689    0.0000 C   0  0  0  0  0  0  0  0  0  0  0  0
   -0.4177    2.5570    0.0000 C   0  0  0  0  0  0  0  0  0  0  0  0
    0.8446    1.7467    0.0000 C   0  0  0  0  0  0  0  0  0  0  0  0
    2.1775    2.4347    0.0000 C   0  0  0  0  0  0  0  0  0  0  0  0
    3.4398    1.6244    0.0000 N   0  0  0  0  0  0  0  0  0  0  0  0
    3.3692    0.1261    0.0000 C   0  0  0  0  0  0  0  0  0  0  0  0
    4.6316   -0.6842    0.0000 C   0  0  0  0  0  0  0  0  0  0  0  0
    5.9644    0.0039    0.0000 N   0  0  0  0  0  0  0  0  0  0  0  0
    7.2268   -0.8064    0.0000 C   0  0  0  0  0  0  0  0  0  0  0  0
    7.1562   -2.3047    0.0000 C   0  0  0  0  0  0  0  0  0  0  0  0
    8.4185   -3.1150    0.0000 C   0  0  0  0  0  0  0  0  0  0  0  0
    9.7514   -2.4270    0.0000 C   0  0  0  0  0  0  0  0  0  0  0  0
    9.8220   -0.9286    0.0000 C   0  0  0  0  0  0  0  0  0  0  0  0
    8.5596   -0.1184    0.0000 C   0  0  0  0  0  0  0  0  0  0  0  0
    6.0350    1.5022    0.0000 C   0  0  0  0  0  0  0  0  0  0  0  0
    4.7727    2.3125    0.0000 C   0  0  0  0  0  0  0  0  0  0  0  0
   -3.0129    2.6792    0.0000 C   0  0  0  0  0  0  0  0  0  0  0  0
   -4.3458    1.9911    0.0000 C   0  0  0  0  0  0  0  0  0  0  0  0
   -5.8198   -1.6936    0.0000 C   0  0  0  0  0  0  0  0  0  0  0  0
   -7.1527   -2.3816    0.0000 C   0  0  0  0  0  0  0  0  0  0  0  0
  1  2  1  0
  2  3  1  0
  3  4  2  0
  4  5  1  0
  5  6  2  0
  7  6  1  6
  7  8  1  0
  8  9  1  0
  9 10  1  0
 10 11  1  6
 11 12  1  0
 12 13  1  0
 13 14  1  0
 14 15  1  0
 15 16  1  0
 16 17  1  0
 17 18  1  0
 18 19  1  0
 19 20  1  0
 20 21  1  0
 21 22  1  0
 22 23  1  0
 17 24  1  0
 24 25  1  0
 10 26  1  0
 26 27  1  0
  6 28  1  0
 28 29  2  0
 29  3  1  0
 27  7  1  0
 25 14  1  0
 23 18  1  0
M  END
>  <Compound_Key>  (1089) 
37cis

>  <Ki>  (1089) 
1.59

>  <database>  (1089) 
NewLiterature

>  <Document_ChEMBL_ID>  (1089) 
10.1038/s41598-023-39703-w

$$$$

     RDKit          2D

 29 32  0  0  0  0  0  0  0  0999 V2000
  -11.0102   -1.4491    0.0000 C   0  0  0  0  0  0  0  0  0  0  0  0
   -9.7479   -2.2594    0.0000 O   0  0  0  0  0  0  0  0  0  0  0  0
   -8.4150   -1.5714    0.0000 C   0  0  0  0  0  0  0  0  0  0  0  0
   -8.3444   -0.0730    0.0000 C   0  0  0  0  0  0  0  0  0  0  0  0
   -7.0116    0.6150    0.0000 C   0  0  0  0  0  0  0  0  0  0  0  0
   -5.7492   -0.1952    0.0000 C   0  0  0  0  0  0  0  0  0  0  0  0
   -4.4164    0.4928    0.0000 C   0  0  0  0  0  0  0  0  0  0  0  0
   -3.1540   -0.3175    0.0000 C   0  0  0  0  0  0  0  0  0  0  0  0
   -1.8212    0.3706    0.0000 C   0  0  0  0  0  0  0  0  0  0  0  0
   -1.7506    1.8689    0.0000 C   0  0  0  0  0  0  0  0  0  0  0  0
   -0.4177    2.5570    0.0000 C   0  0  0  0  0  0  0  0  0  0  0  0
    0.8446    1.7467    0.0000 C   0  0  0  0  0  0  0  0  0  0  0  0
    2.1775    2.4347    0.0000 C   0  0  0  0  0  0  0  0  0  0  0  0
    3.4398    1.6244    0.0000 N   0  0  0  0  0  0  0  0  0  0  0  0
    3.3692    0.1261    0.0000 C   0  0  0  0  0  0  0  0  0  0  0  0
    4.6316   -0.6842    0.0000 C   0  0  0  0  0  0  0  0  0  0  0  0
    5.9644    0.0039    0.0000 N   0  0  0  0  0  0  0  0  0  0  0  0
    7.2268   -0.8064    0.0000 C   0  0  0  0  0  0  0  0  0  0  0  0
    7.1562   -2.3047    0.0000 C   0  0  0  0  0  0  0  0  0  0  0  0
    8.4185   -3.1150    0.0000 C   0  0  0  0  0  0  0  0  0  0  0  0
    9.7514   -2.4270    0.0000 C   0  0  0  0  0  0  0  0  0  0  0  0
    9.8220   -0.9286    0.0000 C   0  0  0  0  0  0  0  0  0  0  0  0
    8.5596   -0.1184    0.0000 C   0  0  0  0  0  0  0  0  0  0  0  0
    6.0350    1.5022    0.0000 C   0  0  0  0  0  0  0  0  0  0  0  0
    4.7727    2.3125    0.0000 C   0  0  0  0  0  0  0  0  0  0  0  0
   -3.0129    2.6792    0.0000 C   0  0  0  0  0  0  0  0  0  0  0  0
   -4.3458    1.9911    0.0000 C   0  0  0  0  0  0  0  0  0  0  0  0
   -5.8198   -1.6936    0.0000 C   0  0  0  0  0  0  0  0  0  0  0  0
   -7.1527   -2.3816    0.0000 C   0  0  0  0  0  0  0  0  0  0  0  0
  1  2  1  0
  2  3  1  0
  3  4  2  0
  4  5  1  0
  5  6  2  0
  7  6  1  6
  7  8  1  0
  8  9  1  0
  9 10  1  0
 10 11  1  1
 11 12  1  0
 12 13  1  0
 13 14  1  0
 14 15  1  0
 15 16  1  0
 16 17  1  0
 17 18  1  0
 18 19  1  0
 19 20  1  0
 20 21  1  0
 21 22  1  0
 22 23  1  0
 17 24  1  0
 24 25  1  0
 10 26  1  0
 26 27  1  0
  6 28  1  0
 28 29  2  0
 29  3  1  0
 27  7  1  0
 25 14  1  0
 23 18  1  0
M  END
>  <Compound_Key>  (1090) 
37trans

>  <Ki>  (1090) 
1.21

>  <database>  (1090) 
NewLiterature

>  <Document_ChEMBL_ID>  (1090) 
10.1038/s41598-023-39704-w

$$$$

     RDKit          2D

 31 34  0  0  0  0  0  0  0  0999 V2000
   -4.3199   -4.2785    0.0000 C   0  0  0  0  0  0  0  0  0  0  0  0
   -4.3186   -2.7785    0.0000 C   0  0  0  0  0  0  0  0  0  0  0  0
   -5.6170   -2.0273    0.0000 C   0  0  0  0  0  0  0  0  0  0  0  0
   -6.9167   -2.7762    0.0000 C   0  0  0  0  0  0  0  0  0  0  0  0
   -8.2150   -2.0251    0.0000 C   0  0  0  0  0  0  0  0  0  0  0  0
   -8.2137   -0.5251    0.0000 C   0  0  0  0  0  0  0  0  0  0  0  0
   -6.9140    0.2238    0.0000 C   0  0  0  0  0  0  0  0  0  0  0  0
   -6.9127    1.7238    0.0000 O   0  0  0  0  0  0  0  0  0  0  0  0
   -8.2111    2.4749    0.0000 C   0  0  0  0  0  0  0  0  0  0  0  0
   -5.6157   -0.5274    0.0000 C   0  0  0  0  0  0  0  0  0  0  0  0
   -4.3160    0.2215    0.0000 C   0  0  0  0  0  0  0  0  0  0  0  0
   -3.0176   -0.5296    0.0000 C   0  0  0  0  0  0  0  0  0  0  0  0
   -1.7179    0.2192    0.0000 C   0  0  0  0  0  0  0  0  0  0  0  0
   -1.7166    1.7192    0.0000 C   0  0  0  0  0  0  0  0  0  0  0  0
   -0.4169    2.4681    0.0000 C   0  0  0  0  0  0  0  0  0  0  0  0
    0.8815    1.7170    0.0000 C   0  0  0  0  0  0  0  0  0  0  0  0
    2.1812    2.4658    0.0000 C   0  0  0  0  0  0  0  0  0  0  0  0
    3.4796    1.7147    0.0000 N   0  0  0  0  0  0  0  0  0  0  0  0
    3.4783    0.2147    0.0000 C   0  0  0  0  0  0  0  0  0  0  0  0
    4.7766   -0.5364    0.0000 C   0  0  0  0  0  0  0  0  0  0  0  0
    6.0763    0.2124    0.0000 N   0  0  0  0  0  0  0  0  0  0  0  0
    7.3747   -0.5387    0.0000 C   0  0  0  0  0  0  0  0  0  0  0  0
    7.3734   -2.0387    0.0000 C   0  0  0  0  0  0  0  0  0  0  0  0
    8.6718   -2.7898    0.0000 C   0  0  0  0  0  0  0  0  0  0  0  0
    9.9715   -2.0410    0.0000 C   0  0  0  0  0  0  0  0  0  0  0  0
    9.9728   -0.5410    0.0000 C   0  0  0  0  0  0  0  0  0  0  0  0
    8.6744    0.2102    0.0000 C   0  0  0  0  0  0  0  0  0  0  0  0
    6.0776    1.7124    0.0000 C   0  0  0  0  0  0  0  0  0  0  0  0
    4.7793    2.4636    0.0000 C   0  0  0  0  0  0  0  0  0  0  0  0
   -3.0150    2.4704    0.0000 C   0  0  0  0  0  0  0  0  0  0  0  0
   -4.3147    1.7215    0.0000 C   0  0  0  0  0  0  0  0  0  0  0  0
  1  2  1  0
  2  3  1  0
  3  4  2  0
  4  5  1  0
  5  6  2  0
  6  7  1  0
  7  8  1  0
  8  9  1  0
  7 10  2  0
 11 10  1  6
 11 12  1  0
 12 13  1  0
 13 14  1  0
 14 15  1  6
 15 16  1  0
 16 17  1  0
 17 18  1  0
 18 19  1  0
 19 20  1  0
 20 21  1  0
 21 22  1  0
 22 23  1  0
 23 24  1  0
 24 25  1  0
 25 26  1  0
 26 27  1  0
 21 28  1  0
 28 29  1  0
 14 30  1  0
 30 31  1  0
 10  3  1  0
 31 11  1  0
 29 18  1  0
 27 22  1  0
M  END
>  <Compound_Key>  (1091) 
38cis

>  <Ki>  (1091) 
7.92

>  <database>  (1091) 
NewLiterature

>  <Document_ChEMBL_ID>  (1091) 
10.1038/s41598-023-39705-w

$$$$

     RDKit          2D

 31 34  0  0  0  0  0  0  0  0999 V2000
   -4.3199   -4.2785    0.0000 C   0  0  0  0  0  0  0  0  0  0  0  0
   -4.3186   -2.7785    0.0000 C   0  0  0  0  0  0  0  0  0  0  0  0
   -5.6170   -2.0273    0.0000 C   0  0  0  0  0  0  0  0  0  0  0  0
   -6.9167   -2.7762    0.0000 C   0  0  0  0  0  0  0  0  0  0  0  0
   -8.2150   -2.0251    0.0000 C   0  0  0  0  0  0  0  0  0  0  0  0
   -8.2137   -0.5251    0.0000 C   0  0  0  0  0  0  0  0  0  0  0  0
   -6.9140    0.2238    0.0000 C   0  0  0  0  0  0  0  0  0  0  0  0
   -6.9127    1.7238    0.0000 O   0  0  0  0  0  0  0  0  0  0  0  0
   -8.2111    2.4749    0.0000 C   0  0  0  0  0  0  0  0  0  0  0  0
   -5.6157   -0.5274    0.0000 C   0  0  0  0  0  0  0  0  0  0  0  0
   -4.3160    0.2215    0.0000 C   0  0  0  0  0  0  0  0  0  0  0  0
   -3.0176   -0.5296    0.0000 C   0  0  0  0  0  0  0  0  0  0  0  0
   -1.7179    0.2192    0.0000 C   0  0  0  0  0  0  0  0  0  0  0  0
   -1.7166    1.7192    0.0000 C   0  0  0  0  0  0  0  0  0  0  0  0
   -0.4169    2.4681    0.0000 C   0  0  0  0  0  0  0  0  0  0  0  0
    0.8815    1.7170    0.0000 C   0  0  0  0  0  0  0  0  0  0  0  0
    2.1812    2.4658    0.0000 C   0  0  0  0  0  0  0  0  0  0  0  0
    3.4796    1.7147    0.0000 N   0  0  0  0  0  0  0  0  0  0  0  0
    3.4783    0.2147    0.0000 C   0  0  0  0  0  0  0  0  0  0  0  0
    4.7766   -0.5364    0.0000 C   0  0  0  0  0  0  0  0  0  0  0  0
    6.0763    0.2124    0.0000 N   0  0  0  0  0  0  0  0  0  0  0  0
    7.3747   -0.5387    0.0000 C   0  0  0  0  0  0  0  0  0  0  0  0
    7.3734   -2.0387    0.0000 C   0  0  0  0  0  0  0  0  0  0  0  0
    8.6718   -2.7898    0.0000 C   0  0  0  0  0  0  0  0  0  0  0  0
    9.9715   -2.0410    0.0000 C   0  0  0  0  0  0  0  0  0  0  0  0
    9.9728   -0.5410    0.0000 C   0  0  0  0  0  0  0  0  0  0  0  0
    8.6744    0.2102    0.0000 C   0  0  0  0  0  0  0  0  0  0  0  0
    6.0776    1.7124    0.0000 C   0  0  0  0  0  0  0  0  0  0  0  0
    4.7793    2.4636    0.0000 C   0  0  0  0  0  0  0  0  0  0  0  0
   -3.0150    2.4704    0.0000 C   0  0  0  0  0  0  0  0  0  0  0  0
   -4.3147    1.7215    0.0000 C   0  0  0  0  0  0  0  0  0  0  0  0
  1  2  1  0
  2  3  1  0
  3  4  2  0
  4  5  1  0
  5  6  2  0
  6  7  1  0
  7  8  1  0
  8  9  1  0
  7 10  2  0
 11 10  1  6
 11 12  1  0
 12 13  1  0
 13 14  1  0
 14 15  1  1
 15 16  1  0
 16 17  1  0
 17 18  1  0
 18 19  1  0
 19 20  1  0
 20 21  1  0
 21 22  1  0
 22 23  1  0
 23 24  1  0
 24 25  1  0
 25 26  1  0
 26 27  1  0
 21 28  1  0
 28 29  1  0
 14 30  1  0
 30 31  1  0
 10  3  1  0
 31 11  1  0
 29 18  1  0
 27 22  1  0
M  END
>  <Compound_Key>  (1092) 
38trans

>  <Ki>  (1092) 
0.21

>  <database>  (1092) 
NewLiterature

>  <Document_ChEMBL_ID>  (1092) 
10.1038/s41598-023-39706-w

$$$$

     RDKit          2D

 23 25  0  0  0  0  0  0  0  0999 V2000
    6.9035   -3.5108    0.0000 C   0  0  0  0  0  0  0  0  0  0  0  0
    6.9223   -2.0109    0.0000 O   0  0  0  0  0  0  0  0  0  0  0  0
    5.6328   -1.2447    0.0000 C   0  0  0  0  0  0  0  0  0  0  0  0
    4.3245   -1.9783    0.0000 C   0  0  0  0  0  0  0  0  0  0  0  0
    3.0349   -1.2121    0.0000 C   0  0  0  0  0  0  0  0  0  0  0  0
    3.0538    0.2878    0.0000 C   0  0  0  0  0  0  0  0  0  0  0  0
    4.3621    1.0214    0.0000 C   0  0  0  0  0  0  0  0  0  0  0  0
    5.6516    0.2552    0.0000 C   0  0  0  0  0  0  0  0  0  0  0  0
    4.3809    2.5213    0.0000 C   0  0  0  0  0  0  0  0  0  0  0  0
    3.0914    3.2876    0.0000 C   0  0  0  0  0  0  0  0  0  0  0  0
    1.7831    2.5539    0.0000 C   0  0  0  0  0  0  0  0  0  0  0  0
    1.7642    1.0540    0.0000 C   0  0  0  0  0  0  0  0  0  0  0  0
    0.4559    0.3204    0.0000 C   0  0  0  0  0  0  0  0  0  0  0  0
   -0.8336    1.0866    0.0000 C   0  0  0  0  0  0  0  0  0  0  0  0
   -2.1420    0.3530    0.0000 C   0  0  0  0  0  0  0  0  0  0  0  0
   -3.4315    1.1192    0.0000 C   0  0  0  0  0  0  0  0  0  0  0  0
   -4.7398    0.3856    0.0000 N   0  0  0  0  0  0  0  0  0  0  0  0
   -6.0294    1.1518    0.0000 C   0  0  0  0  0  0  0  0  0  0  0  0
   -7.3377    0.4182    0.0000 C   0  0  0  0  0  0  0  0  0  0  0  0
   -7.3565   -1.0817    0.0000 C   0  0  0  0  0  0  0  0  0  0  0  0
   -8.6649   -1.8153    0.0000 C   0  0  0  0  0  0  0  0  0  0  0  0
   -6.0670   -1.8479    0.0000 C   0  0  0  0  0  0  0  0  0  0  0  0
   -4.7587   -1.1143    0.0000 C   0  0  0  0  0  0  0  0  0  0  0  0
  1  2  1  0
  2  3  1  0
  3  4  2  0
  4  5  1  0
  5  6  2  0
  6  7  1  0
  7  8  2  0
  7  9  1  0
  9 10  1  0
 10 11  1  0
 11 12  1  0
 12 13  1  0
 13 14  1  0
 14 15  1  0
 15 16  1  0
 16 17  1  0
 17 18  1  0
 18 19  1  0
 19 20  1  0
 20 21  1  0
 20 22  1  0
 22 23  1  0
  8  3  1  0
 23 17  1  0
 12  6  1  0
M  END
>  <Compound_Key>  (1093) 
PB190

>  <Ki>  (1093) 
36.3

>  <database>  (1093) 
NewLiterature

>  <Document_ChEMBL_ID>  (1093) 
10.1038/s41598-023-39707-w

$$$$

     RDKit          2D

 23 25  0  0  0  0  0  0  0  0999 V2000
    6.9035   -3.5108    0.0000 C   0  0  0  0  0  0  0  0  0  0  0  0
    6.9223   -2.0109    0.0000 O   0  0  0  0  0  0  0  0  0  0  0  0
    5.6328   -1.2447    0.0000 C   0  0  0  0  0  0  0  0  0  0  0  0
    4.3245   -1.9783    0.0000 C   0  0  0  0  0  0  0  0  0  0  0  0
    3.0349   -1.2121    0.0000 C   0  0  0  0  0  0  0  0  0  0  0  0
    3.0538    0.2878    0.0000 C   0  0  0  0  0  0  0  0  0  0  0  0
    1.7642    1.0540    0.0000 C   0  0  0  0  0  0  0  0  0  0  0  0
    0.4559    0.3204    0.0000 C   0  0  0  0  0  0  0  0  0  0  0  0
   -0.8336    1.0866    0.0000 C   0  0  0  0  0  0  0  0  0  0  0  0
   -2.1420    0.3530    0.0000 C   0  0  0  0  0  0  0  0  0  0  0  0
   -3.4315    1.1192    0.0000 C   0  0  0  0  0  0  0  0  0  0  0  0
   -4.7398    0.3856    0.0000 N   0  0  0  0  0  0  0  0  0  0  0  0
   -6.0294    1.1518    0.0000 C   0  0  0  0  0  0  0  0  0  0  0  0
   -7.3377    0.4182    0.0000 C   0  0  0  0  0  0  0  0  0  0  0  0
   -7.3565   -1.0817    0.0000 C   0  0  0  0  0  0  0  0  0  0  0  0
   -8.6649   -1.8153    0.0000 C   0  0  0  0  0  0  0  0  0  0  0  0
   -6.0670   -1.8479    0.0000 C   0  0  0  0  0  0  0  0  0  0  0  0
   -4.7587   -1.1143    0.0000 C   0  0  0  0  0  0  0  0  0  0  0  0
    1.7831    2.5539    0.0000 C   0  0  0  0  0  0  0  0  0  0  0  0
    3.0914    3.2876    0.0000 C   0  0  0  0  0  0  0  0  0  0  0  0
    4.3809    2.5213    0.0000 C   0  0  0  0  0  0  0  0  0  0  0  0
    4.3621    1.0214    0.0000 C   0  0  0  0  0  0  0  0  0  0  0  0
    5.6516    0.2552    0.0000 C   0  0  0  0  0  0  0  0  0  0  0  0
  1  2  1  0
  2  3  1  0
  3  4  2  0
  4  5  1  0
  5  6  2  0
  6  7  1  0
  7  8  1  0
  8  9  1  0
  9 10  1  0
 10 11  1  0
 11 12  1  0
 12 13  1  0
 13 14  1  0
 14 15  1  0
 15 16  1  0
 15 17  1  0
 17 18  1  0
  7 19  2  0
 19 20  1  0
 20 21  2  0
 21 22  1  0
 22 23  2  0
 23  3  1  0
 22  6  1  0
 18 12  1  0
M  END
>  <Compound_Key>  (1094) 
PB212

>  <Ki>  (1094) 
17.9

>  <database>  (1094) 
NewLiterature

>  <Document_ChEMBL_ID>  (1094) 
10.1038/s41598-023-39708-w

$$$$

     RDKit          2D

 23 25  0  0  0  0  0  0  0  0999 V2000
    7.3479   -2.7506    0.0000 C   0  0  0  0  0  0  0  0  0  0  0  0
    7.0641   -1.2777    0.0000 O   0  0  0  0  0  0  0  0  0  0  0  0
    5.6466   -0.7871    0.0000 C   0  0  0  0  0  0  0  0  0  0  0  0
    4.5129   -1.7694    0.0000 C   0  0  0  0  0  0  0  0  0  0  0  0
    3.0955   -1.2787    0.0000 C   0  0  0  0  0  0  0  0  0  0  0  0
    2.8116    0.1942    0.0000 C   0  0  0  0  0  0  0  0  0  0  0  0
    1.3941    0.6848    0.0000 C   0  0  0  0  0  0  0  0  0  0  0  0
    0.2605   -0.2974    0.0000 C   0  0  0  0  0  0  0  0  0  0  0  0
   -1.1570    0.1932    0.0000 C   0  0  0  0  0  0  0  0  0  0  0  0
   -2.2907   -0.7890    0.0000 C   0  0  0  0  0  0  0  0  0  0  0  0
   -3.7081   -0.2984    0.0000 N   0  0  0  0  0  0  0  0  0  0  0  0
   -3.9920    1.1745    0.0000 C   0  0  0  0  0  0  0  0  0  0  0  0
   -5.4095    1.6651    0.0000 C   0  0  0  0  0  0  0  0  0  0  0  0
   -6.5431    0.6829    0.0000 C   0  0  0  0  0  0  0  0  0  0  0  0
   -6.2593   -0.7900    0.0000 C   0  0  0  0  0  0  0  0  0  0  0  0
   -6.4963   -2.2712    0.0000 C   0  0  0  0  0  0  0  0  0  0  0  0
   -7.7591   -0.8138    0.0000 C   0  0  0  0  0  0  0  0  0  0  0  0
   -4.8418   -1.2807    0.0000 C   0  0  0  0  0  0  0  0  0  0  0  0
    1.1103    2.1577    0.0000 C   0  0  0  0  0  0  0  0  0  0  0  0
    2.2439    3.1400    0.0000 C   0  0  0  0  0  0  0  0  0  0  0  0
    3.6614    2.6493    0.0000 C   0  0  0  0  0  0  0  0  0  0  0  0
    3.9453    1.1764    0.0000 C   0  0  0  0  0  0  0  0  0  0  0  0
    5.3628    0.6858    0.0000 C   0  0  0  0  0  0  0  0  0  0  0  0
  1  2  1  0
  2  3  1  0
  3  4  2  0
  4  5  1  0
  5  6  2  0
  6  7  1  0
  7  8  1  0
  8  9  1  0
  9 10  1  0
 10 11  1  0
 11 12  1  0
 12 13  1  0
 13 14  1  0
 14 15  1  0
 15 16  1  0
 15 17  1  0
 15 18  1  0
  7 19  2  0
 19 20  1  0
 20 21  2  0
 21 22  1  0
 22 23  2  0
 23  3  1  0
 22  6  1  0
 18 11  1  0
M  END
>  <Compound_Key>  (1095) 
39

>  <Ki>  (1095) 
238.0

>  <database>  (1095) 
NewLiterature

>  <Document_ChEMBL_ID>  (1095) 
10.1038/s41598-023-39709-w

$$$$

     RDKit          2D

 21 23  0  0  0  0  0  0  0  0999 V2000
   -8.2486   -1.0818    0.0000 C   0  0  0  0  0  0  0  0  0  0  0  0
   -7.0298   -0.2074    0.0000 C   0  0  0  0  0  0  0  0  0  0  0  0
   -5.6632   -0.8258    0.0000 C   0  0  0  0  0  0  0  0  0  0  0  0
   -4.4444    0.0486    0.0000 N   0  0  0  0  0  0  0  0  0  0  0  0
   -4.5922    1.5413    0.0000 C   0  0  0  0  0  0  0  0  0  0  0  0
   -3.3734    2.4157    0.0000 C   0  0  0  0  0  0  0  0  0  0  0  0
   -2.0068    1.7973    0.0000 C   0  0  0  0  0  0  0  0  0  0  0  0
   -1.8590    0.3046    0.0000 C   0  0  0  0  0  0  0  0  0  0  0  0
   -0.4923   -0.3137    0.0000 C   0  0  0  0  0  0  0  0  0  0  0  0
    0.8112    0.4285    0.0000 C   0  0  0  0  0  0  0  0  0  0  0  0
    1.9199   -0.5819    0.0000 C   0  0  0  0  0  0  0  0  0  0  0  0
    3.3889   -0.2788    0.0000 C   0  0  0  0  0  0  0  0  0  0  0  0
    4.3859   -1.3996    0.0000 C   0  0  0  0  0  0  0  0  0  0  0  0
    5.8550   -1.0965    0.0000 C   0  0  0  0  0  0  0  0  0  0  0  0
    6.3271    0.3272    0.0000 C   0  0  0  0  0  0  0  0  0  0  0  0
    7.7961    0.6303    0.0000 C   0  0  0  0  0  0  0  0  0  0  0  0
    5.3301    1.4480    0.0000 C   0  0  0  0  0  0  0  0  0  0  0  0
    3.8610    1.1449    0.0000 C   0  0  0  0  0  0  0  0  0  0  0  0
    1.3015   -1.9485    0.0000 N   0  0  0  0  0  0  0  0  0  0  0  0
   -0.1893   -1.7828    0.0000 O   0  0  0  0  0  0  0  0  0  0  0  0
   -3.0778   -0.5697    0.0000 C   0  0  0  0  0  0  0  0  0  0  0  0
  1  2  1  0
  2  3  1  0
  3  4  1  0
  4  5  1  0
  5  6  1  0
  6  7  1  0
  7  8  2  0
  8  9  1  0
  9 10  2  0
 10 11  1  0
 11 12  1  0
 12 13  2  0
 13 14  1  0
 14 15  2  0
 15 16  1  0
 15 17  1  0
 17 18  2  0
 11 19  2  0
 19 20  1  0
  8 21  1  0
 21  4  1  0
 20  9  1  0
 18 12  1  0
M  END
>  <Compound_Key>  (1096) 
PD144418

>  <Ki>  (1096) 
1377.0

>  <database>  (1096) 
NewLiterature

>  <Document_ChEMBL_ID>  (1096) 
10.1016/j.bmc.2022.117032

$$$$

     RDKit          2D

 26 28  0  0  0  0  0  0  0  0999 V2000
   -9.4484   -1.7013    0.0000 C   0  0  0  0  0  0  0  0  0  0  0  0
   -7.9489   -1.6614    0.0000 O   0  0  0  0  0  0  0  0  0  0  0  0
   -7.2338   -0.3428    0.0000 C   0  0  0  0  0  0  0  0  0  0  0  0
   -8.0182    0.9358    0.0000 C   0  0  0  0  0  0  0  0  0  0  0  0
   -7.3031    2.2544    0.0000 C   0  0  0  0  0  0  0  0  0  0  0  0
   -5.8036    2.2943    0.0000 C   0  0  0  0  0  0  0  0  0  0  0  0
   -5.0192    1.0157    0.0000 C   0  0  0  0  0  0  0  0  0  0  0  0
   -3.5198    1.0557    0.0000 N   0  0  0  0  0  0  0  0  0  0  0  0
   -2.7354   -0.2229    0.0000 C   0  0  0  0  0  0  0  0  0  0  0  0
   -1.2359   -0.1829    0.0000 C   0  0  0  0  0  0  0  0  0  0  0  0
   -0.4516   -1.4615    0.0000 C   0  0  0  0  0  0  0  0  0  0  0  0
    1.0479   -1.4215    0.0000 N   0  0  0  0  0  0  0  0  0  0  0  0
    1.8322   -2.7001    0.0000 C   0  0  0  0  0  0  0  0  0  0  0  0
    3.3317   -2.6601    0.0000 C   0  0  0  0  0  0  0  0  0  0  0  0
    4.0468   -1.3416    0.0000 C   0  0  0  0  0  0  0  0  0  0  0  0
    5.5463   -1.3016    0.0000 C   0  0  0  0  0  0  0  0  0  0  0  0
    6.2614    0.0170    0.0000 C   0  0  0  0  0  0  0  0  0  0  0  0
    7.7609    0.0570    0.0000 O   0  0  0  0  0  0  0  0  0  0  0  0
    8.5452   -1.2216    0.0000 C   0  0  0  0  0  0  0  0  0  0  0  0
    5.4770    1.2956    0.0000 C   0  0  0  0  0  0  0  0  0  0  0  0
    6.1921    2.6141    0.0000 O   0  0  0  0  0  0  0  0  0  0  0  0
    5.4078    3.8927    0.0000 C   0  0  0  0  0  0  0  0  0  0  0  0
    3.9776    1.2556    0.0000 C   0  0  0  0  0  0  0  0  0  0  0  0
    3.2625   -0.0630    0.0000 C   0  0  0  0  0  0  0  0  0  0  0  0
    1.7630   -0.1029    0.0000 C   0  0  0  0  0  0  0  0  0  0  0  0
   -5.7344   -0.3028    0.0000 C   0  0  0  0  0  0  0  0  0  0  0  0
  1  2  1  0
  2  3  1  0
  3  4  2  0
  4  5  1  0
  5  6  2  0
  6  7  1  0
  7  8  1  0
  8  9  1  0
  9 10  1  0
 10 11  1  0
 11 12  1  0
 12 13  1  0
 13 14  1  0
 14 15  1  0
 15 16  2  0
 16 17  1  0
 17 18  1  0
 18 19  1  0
 17 20  2  0
 20 21  1  0
 21 22  1  0
 20 23  1  0
 23 24  2  0
 24 25  1  0
  7 26  2  0
 26  3  1  0
 25 12  1  0
 24 15  1  0
M  END
>  <Compound_Key>  (1097) 
81

>  <Ki>  (1097) 
9.8

>  <database>  (1097) 
NewLiterature

>  <Document_ChEMBL_ID>  (1097) 
10.1021/acs.jmedchem.0c02265

$$$$

     RDKit          2D

 19 20  0  0  0  0  0  0  0  0999 V2000
   -7.2427   -0.6655    0.0000 C   0  0  0  0  0  0  0  0  0  0  0  0
   -5.8038   -1.0891    0.0000 O   0  0  0  0  0  0  0  0  0  0  0  0
   -4.7175   -0.0547    0.0000 C   0  0  0  0  0  0  0  0  0  0  0  0
   -5.0701    1.4032    0.0000 C   0  0  0  0  0  0  0  0  0  0  0  0
   -3.9838    2.4376    0.0000 C   0  0  0  0  0  0  0  0  0  0  0  0
   -2.5448    2.0140    0.0000 C   0  0  0  0  0  0  0  0  0  0  0  0
   -2.1922    0.5560    0.0000 C   0  0  0  0  0  0  0  0  0  0  0  0
   -0.7533    0.1324    0.0000 C   0  0  0  0  0  0  0  0  0  0  0  0
   -0.4006   -1.3255    0.0000 C   0  0  0  0  0  0  0  0  0  0  0  0
    1.0383   -1.7491    0.0000 N   0  0  0  0  0  0  0  0  0  0  0  0
    1.3909   -3.2071    0.0000 C   0  0  0  0  0  0  0  0  0  0  0  0
    2.1246   -0.7148    0.0000 C   0  0  0  0  0  0  0  0  0  0  0  0
    3.5636   -1.1384    0.0000 C   0  0  0  0  0  0  0  0  0  0  0  0
    4.6499   -0.1040    0.0000 N   0  0  0  0  0  0  0  0  0  0  0  0
    4.4516    1.3828    0.0000 C   0  0  0  0  0  0  0  0  0  0  0  0
    5.8044    2.0309    0.0000 C   0  0  0  0  0  0  0  0  0  0  0  0
    6.8388    0.9445    0.0000 C   0  0  0  0  0  0  0  0  0  0  0  0
    6.1252   -0.3749    0.0000 C   0  0  0  0  0  0  0  0  0  0  0  0
   -3.2785   -0.4783    0.0000 C   0  0  0  0  0  0  0  0  0  0  0  0
  1  2  1  0
  2  3  1  0
  3  4  2  0
  4  5  1  0
  5  6  2  0
  6  7  1  0
  7  8  1  0
  8  9  1  0
  9 10  1  0
 10 11  1  0
 10 12  1  0
 12 13  1  0
 13 14  1  0
 14 15  1  0
 15 16  1  0
 16 17  1  0
 17 18  1  0
  7 19  2  0
 19  3  1  0
 18 14  1  0
M  END
>  <ChemBL_ID>  (1098) 
CHEMBL119104

>  <Compound_Key>  (1098) 
1120a, YZ-011

>  <Ki>  (1098) 
209.0

>  <database>  (1098) 
CHEMBL

>  <Assay_ChEMBL_ID>  (1098) 
CHEMBL808279

>  <Document_ChEMBL_ID>  (1098) 
CHEMBL1129631

$$$$

     RDKit          2D

 27 30  0  0  0  0  0  0  0  0999 V2000
   -3.8151    2.0698    0.0000 O   0  0  0  0  0  0  0  0  0  0  0  0
   -4.0425    0.5871    0.0000 C   0  0  0  0  0  0  0  0  0  0  0  0
   -2.8721   -0.3511    0.0000 C   0  0  0  0  0  0  0  0  0  0  0  0
   -1.4744    0.1933    0.0000 N   0  0  0  0  0  0  0  0  0  0  0  0
   -0.3040   -0.7449    0.0000 C   0  0  0  0  0  0  0  0  0  0  0  0
    1.0937   -0.2004    0.0000 C   0  0  0  0  0  0  0  0  0  0  0  0
    1.3210    1.2822    0.0000 C   0  0  0  0  0  0  0  0  0  0  0  0
    2.7187    1.8267    0.0000 C   0  0  0  0  0  0  0  0  0  0  0  0
    3.8891    0.8885    0.0000 N   0  0  0  0  0  0  0  0  0  0  0  0
    3.8180   -0.6098    0.0000 C   0  0  0  0  0  0  0  0  0  0  0  0
    5.2210   -1.1405    0.0000 C   0  0  0  0  0  0  0  0  0  0  0  0
    5.7654   -2.5382    0.0000 C   0  0  0  0  0  0  0  0  0  0  0  0
    7.2481   -2.7655    0.0000 C   0  0  0  0  0  0  0  0  0  0  0  0
    8.1863   -1.5952    0.0000 C   0  0  0  0  0  0  0  0  0  0  0  0
    7.6419   -0.1975    0.0000 C   0  0  0  0  0  0  0  0  0  0  0  0
    6.1592    0.0299    0.0000 C   0  0  0  0  0  0  0  0  0  0  0  0
    5.3360    1.2838    0.0000 C   0  0  0  0  0  0  0  0  0  0  0  0
    5.8667    2.6868    0.0000 O   0  0  0  0  0  0  0  0  0  0  0  0
    0.1507    2.2205    0.0000 C   0  0  0  0  0  0  0  0  0  0  0  0
   -1.2471    1.6760    0.0000 C   0  0  0  0  0  0  0  0  0  0  0  0
   -5.4402    0.0427    0.0000 C   0  0  0  0  0  0  0  0  0  0  0  0
   -6.6105    0.9809    0.0000 C   0  0  0  0  0  0  0  0  0  0  0  0
   -8.0082    0.4364    0.0000 C   0  0  0  0  0  0  0  0  0  0  0  0
   -8.2356   -1.0462    0.0000 C   0  0  0  0  0  0  0  0  0  0  0  0
   -9.6333   -1.5907    0.0000 F   0  0  0  0  0  0  0  0  0  0  0  0
   -7.0652   -1.9845    0.0000 C   0  0  0  0  0  0  0  0  0  0  0  0
   -5.6675   -1.4400    0.0000 C   0  0  0  0  0  0  0  0  0  0  0  0
  1  2  2  0
  2  3  1  0
  3  4  1  0
  4  5  1  0
  5  6  1  0
  6  7  1  0
  7  8  1  0
  8  9  1  0
  9 10  1  0
 10 11  1  0
 11 12  2  0
 12 13  1  0
 13 14  2  0
 14 15  1  0
 15 16  2  0
 16 17  1  0
 17 18  2  0
  7 19  1  0
 19 20  1  0
  2 21  1  0
 21 22  2  0
 22 23  1  0
 23 24  2  0
 24 25  1  0
 24 26  1  0
 26 27  2  0
 20  4  1  0
 27 21  1  0
 17  9  1  0
 16 11  1  0
M  END
>  <Compound_Key>  (1099) 
Roluperidone(MIN-10)

>  <Ki>  (1099) 
8.19

>  <database>  (1099) 
NewLiterature

>  <Document_ChEMBL_ID>  (1099) 
10.1016/j.bmc.2022.117032

$$$$

     RDKit          2D

 24 27  0  0  0  0  0  0  0  0999 V2000
    1.2078   -0.0168    0.0000 C   0  0  0  0  0  0  0  0  0  0  0  0
    2.2005   -1.1413    0.0000 C   0  0  0  0  0  0  0  0  0  0  0  0
    3.6707   -0.8439    0.0000 C   0  0  0  0  0  0  0  0  0  0  0  0
    4.7755   -1.8585    0.0000 C   0  0  0  0  0  0  0  0  0  0  0  0
    6.0819   -1.1213    0.0000 N   0  0  0  0  0  0  0  0  0  0  0  0
    5.7844    0.3489    0.0000 C   0  0  0  0  0  0  0  0  0  0  0  0
    6.6780    1.5537    0.0000 N   0  0  0  0  0  0  0  0  0  0  0  0
    6.0814    2.9300    0.0000 C   0  0  0  0  0  0  0  0  0  0  0  0
    4.5912    3.1014    0.0000 C   0  0  0  0  0  0  0  0  0  0  0  0
    3.6976    1.8966    0.0000 C   0  0  0  0  0  0  0  0  0  0  0  0
    4.2943    0.5204    0.0000 C   0  0  0  0  0  0  0  0  0  0  0  0
    1.7230   -2.5633    0.0000 C   0  0  0  0  0  0  0  0  0  0  0  0
    0.2528   -2.8607    0.0000 C   0  0  0  0  0  0  0  0  0  0  0  0
   -0.7399   -1.7362    0.0000 N   0  0  0  0  0  0  0  0  0  0  0  0
   -2.2101   -2.0337    0.0000 C   0  0  0  0  0  0  0  0  0  0  0  0
   -3.2028   -0.9091    0.0000 C   0  0  0  0  0  0  0  0  0  0  0  0
   -4.6730   -1.2066    0.0000 C   0  0  0  0  0  0  0  0  0  0  0  0
   -5.6657   -0.0821    0.0000 C   0  0  0  0  0  0  0  0  0  0  0  0
   -5.1882    1.3399    0.0000 C   0  0  0  0  0  0  0  0  0  0  0  0
   -6.1809    2.4644    0.0000 C   0  0  0  0  0  0  0  0  0  0  0  0
   -7.6511    2.1670    0.0000 C   0  0  0  0  0  0  0  0  0  0  0  0
   -8.1287    0.7450    0.0000 C   0  0  0  0  0  0  0  0  0  0  0  0
   -7.1360   -0.3795    0.0000 C   0  0  0  0  0  0  0  0  0  0  0  0
   -0.2624   -0.3143    0.0000 C   0  0  0  0  0  0  0  0  0  0  0  0
  1  2  2  0
  2  3  1  0
  3  4  2  0
  4  5  1  0
  5  6  1  0
  6  7  2  0
  7  8  1  0
  8  9  2  0
  9 10  1  0
 10 11  2  0
  2 12  1  0
 12 13  1  0
 13 14  1  0
 14 15  1  0
 15 16  1  0
 16 17  1  0
 17 18  1  0
 18 19  2  0
 19 20  1  0
 20 21  2  0
 21 22  1  0
 22 23  2  0
 14 24  1  0
 24  1  1  0
 11  3  1  0
 23 18  1  0
 11  6  1  0
M  END
>  <Compound_Key>  (1100) 
Z1241145220

>  <Ki>  (1100) 
3.7

>  <database>  (1100) 
NewLiterature

>  <Document_ChEMBL_ID>  (1100) 
10.1016/j.bmc.2022.117032

$$$$

     RDKit          2D

 25 27  0  0  0  0  0  0  0  0999 V2000
   -6.1881    2.2658    0.0000 C   0  0  0  0  0  0  0  0  0  0  0  0
   -5.5771    0.8959    0.0000 N   0  0  0  0  0  0  0  0  0  0  0  0
   -6.4580   -0.3182    0.0000 C   0  0  0  0  0  0  0  0  0  0  0  0
   -7.9499   -0.1624    0.0000 O   0  0  0  0  0  0  0  0  0  0  0  0
   -5.8470   -1.6881    0.0000 C   0  0  0  0  0  0  0  0  0  0  0  0
   -4.3551   -1.8439    0.0000 C   0  0  0  0  0  0  0  0  0  0  0  0
   -3.4742   -0.6298    0.0000 C   0  0  0  0  0  0  0  0  0  0  0  0
   -1.9823   -0.7856    0.0000 C   0  0  0  0  0  0  0  0  0  0  0  0
   -1.1014    0.4285    0.0000 C   0  0  0  0  0  0  0  0  0  0  0  0
    0.3904    0.2727    0.0000 C   0  0  0  0  0  0  0  0  0  0  0  0
    1.0014   -1.0972    0.0000 N   0  0  0  0  0  0  0  0  0  0  0  0
    2.4933   -1.2530    0.0000 C   0  0  0  0  0  0  0  0  0  0  0  0
    2.3375   -2.7449    0.0000 C   0  0  0  0  0  0  0  0  0  0  0  0
    2.6491    0.2389    0.0000 C   0  0  0  0  0  0  0  0  0  0  0  0
    3.9852   -1.4088    0.0000 C   0  0  0  0  0  0  0  0  0  0  0  0
    4.5962   -2.7788    0.0000 O   0  0  0  0  0  0  0  0  0  0  0  0
    4.8661   -0.1947    0.0000 C   0  0  0  0  0  0  0  0  0  0  0  0
    6.3580   -0.3505    0.0000 C   0  0  0  0  0  0  0  0  0  0  0  0
    7.2389    0.8636    0.0000 C   0  0  0  0  0  0  0  0  0  0  0  0
    6.6278    2.2335    0.0000 C   0  0  0  0  0  0  0  0  0  0  0  0
    5.1360    2.3893    0.0000 C   0  0  0  0  0  0  0  0  0  0  0  0
    4.2551    1.1752    0.0000 C   0  0  0  0  0  0  0  0  0  0  0  0
   -1.7125    1.7984    0.0000 C   0  0  0  0  0  0  0  0  0  0  0  0
   -3.2043    1.9542    0.0000 C   0  0  0  0  0  0  0  0  0  0  0  0
   -4.0852    0.7401    0.0000 C   0  0  0  0  0  0  0  0  0  0  0  0
  1  2  1  0
  2  3  1  0
  3  4  2  0
  3  5  1  0
  5  6  1  0
  6  7  1  0
  7  8  2  0
  8  9  1  0
  9 10  1  0
 10 11  1  0
 11 12  1  0
 12 13  1  0
 12 14  1  0
 12 15  1  0
 15 16  1  6
 15 17  1  0
 17 18  2  0
 18 19  1  0
 19 20  2  0
 20 21  1  0
 21 22  2  0
  9 23  2  0
 23 24  1  0
 24 25  2  0
 25  2  1  0
 25  7  1  0
 22 17  1  0
M  END
>  <Compound_Key>  (1101) 
Z4857158944

>  <Ki>  (1101) 
4.0

>  <database>  (1101) 
NewLiterature

>  <Document_ChEMBL_ID>  (1101) 
10.1016/j.bmc.2022.117032

$$$$

     RDKit          2D

 34 39  0  0  0  0  0  0  0  0999 V2000
   -9.1951   -4.4538    0.0000 F   0  0  0  0  0  0  0  0  0  0  0  0
   -8.1869   -3.3432    0.0000 C   0  0  0  0  0  0  0  0  0  0  0  0
   -8.6446   -1.9147    0.0000 C   0  0  0  0  0  0  0  0  0  0  0  0
   -7.6365   -0.8041    0.0000 C   0  0  0  0  0  0  0  0  0  0  0  0
   -6.1705   -1.1218    0.0000 C   0  0  0  0  0  0  0  0  0  0  0  0
   -5.1623   -0.0112    0.0000 N   0  0  0  0  0  0  0  0  0  0  0  0
   -3.6712   -0.1740    0.0000 C   0  0  0  0  0  0  0  0  0  0  0  0
   -3.0555    1.1938    0.0000 C   0  0  0  0  0  0  0  0  0  0  0  0
   -1.5871    1.4998    0.0000 C   0  0  0  0  0  0  0  0  0  0  0  0
   -0.5879    0.3810    0.0000 C   0  0  0  0  0  0  0  0  0  0  0  0
    0.8806    0.6869    0.0000 C   0  0  0  0  0  0  0  0  0  0  0  0
    1.8798   -0.4318    0.0000 C   0  0  0  0  0  0  0  0  0  0  0  0
    3.3482   -0.1259    0.0000 N   0  0  0  0  0  0  0  0  0  0  0  0
    4.3474   -1.2446    0.0000 C   0  0  0  0  0  0  0  0  0  0  0  0
    5.8159   -0.9387    0.0000 C   0  0  0  0  0  0  0  0  0  0  0  0
    6.2852    0.4860    0.0000 C   0  0  0  0  0  0  0  0  0  0  0  0
    5.2860    1.6048    0.0000 C   0  0  0  0  0  0  0  0  0  0  0  0
    3.8175    1.2988    0.0000 C   0  0  0  0  0  0  0  0  0  0  0  0
    6.9008    1.8538    0.0000 O   0  0  0  0  0  0  0  0  0  0  0  0
    8.3919    1.6910    0.0000 C   0  0  0  0  0  0  0  0  0  0  0  0
    8.6979    0.2226    0.0000 C   0  0  0  0  0  0  0  0  0  0  0  0
    9.9939   -0.5327    0.0000 C   0  0  0  0  0  0  0  0  0  0  0  0
    9.9878   -2.0327    0.0000 C   0  0  0  0  0  0  0  0  0  0  0  0
    8.6858   -2.7774    0.0000 C   0  0  0  0  0  0  0  0  0  0  0  0
    7.3898   -2.0222    0.0000 C   0  0  0  0  0  0  0  0  0  0  0  0
    7.3958   -0.5222    0.0000 C   0  0  0  0  0  0  0  0  0  0  0  0
   -4.1662    2.2020    0.0000 C   0  0  0  0  0  0  0  0  0  0  0  0
   -4.1601    3.7020    0.0000 C   0  0  0  0  0  0  0  0  0  0  0  0
   -5.4561    4.4572    0.0000 C   0  0  0  0  0  0  0  0  0  0  0  0
   -6.7582    3.7125    0.0000 C   0  0  0  0  0  0  0  0  0  0  0  0
   -6.7642    2.2125    0.0000 C   0  0  0  0  0  0  0  0  0  0  0  0
   -5.4683    1.4573    0.0000 C   0  0  0  0  0  0  0  0  0  0  0  0
   -5.7127   -2.5503    0.0000 C   0  0  0  0  0  0  0  0  0  0  0  0
   -6.7209   -3.6609    0.0000 C   0  0  0  0  0  0  0  0  0  0  0  0
  1  2  1  0
  2  3  2  0
  3  4  1  0
  4  5  2  0
  5  6  1  0
  6  7  1  0
  7  8  2  0
  8  9  1  0
  9 10  1  0
 10 11  1  0
 11 12  1  0
 12 13  1  0
 13 14  1  0
 14 15  1  0
 15 16  1  0
 16 17  1  0
 17 18  1  0
 16 19  1  0
 19 20  1  0
 20 21  1  0
 21 22  2  0
 22 23  1  0
 23 24  2  0
 24 25  1  0
 25 26  2  0
  8 27  1  0
 27 28  2  0
 28 29  1  0
 29 30  2  0
 30 31  1  0
 31 32  2  0
  5 33  1  0
 33 34  2  0
 34  2  1  0
 32  6  1  0
 18 13  1  0
 26 21  1  0
 32 27  1  0
 26 16  1  0
M  END
>  <Compound_Key>  (1102) 
Siramesine

>  <Ki>  (1102) 
10.5

>  <database>  (1102) 
NewLiterature

>  <Document_ChEMBL_ID>  (1102) 
10.1016/j.bmc.2022.117032

$$$$

     RDKit          2D

 20 21  0  0  0  0  0  0  0  0999 V2000
   -2.7957    3.3627    0.0000 C   0  0  0  0  0  0  0  0  0  0  0  0
   -1.3441    2.9847    0.0000 C   0  0  0  0  0  0  0  0  0  0  0  0
   -0.9458    1.5386    0.0000 N   0  0  0  0  0  0  0  0  0  0  0  0
    0.5058    1.1605    0.0000 C   0  0  0  0  0  0  0  0  0  0  0  0
    0.9042   -0.2856    0.0000 C   0  0  0  0  0  0  0  0  0  0  0  0
    2.3558   -0.6637    0.0000 C   0  0  0  0  0  0  0  0  0  0  0  0
    2.7542   -2.1098    0.0000 C   0  0  0  0  0  0  0  0  0  0  0  0
    4.2057   -2.4878    0.0000 C   0  0  0  0  0  0  0  0  0  0  0  0
    5.2589   -1.4198    0.0000 C   0  0  0  0  0  0  0  0  0  0  0  0
    4.8605    0.0264    0.0000 C   0  0  0  0  0  0  0  0  0  0  0  0
    5.9137    1.0944    0.0000 O   0  0  0  0  0  0  0  0  0  0  0  0
    7.3653    0.7164    0.0000 C   0  0  0  0  0  0  0  0  0  0  0  0
    3.4090    0.4044    0.0000 C   0  0  0  0  0  0  0  0  0  0  0  0
   -1.9990    0.4705    0.0000 C   0  0  0  0  0  0  0  0  0  0  0  0
   -3.4505    0.8485    0.0000 C   0  0  0  0  0  0  0  0  0  0  0  0
   -4.5037   -0.2195    0.0000 N   0  0  0  0  0  0  0  0  0  0  0  0
   -4.2587   -1.6994    0.0000 C   0  0  0  0  0  0  0  0  0  0  0  0
   -5.5904   -2.3897    0.0000 C   0  0  0  0  0  0  0  0  0  0  0  0
   -6.6585   -1.3365    0.0000 C   0  0  0  0  0  0  0  0  0  0  0  0
   -5.9869    0.0047    0.0000 C   0  0  0  0  0  0  0  0  0  0  0  0
  1  2  1  0
  2  3  1  0
  3  4  1  0
  4  5  1  0
  5  6  1  0
  6  7  2  0
  7  8  1  0
  8  9  2  0
  9 10  1  0
 10 11  1  0
 11 12  1  0
 10 13  2  0
  3 14  1  0
 14 15  1  0
 15 16  1  0
 16 17  1  0
 17 18  1  0
 18 19  1  0
 19 20  1  0
 13  6  1  0
 20 16  1  0
M  END
>  <Compound_Key>  (1103) 
20e, UMB116

>  <Ki>  (1103) 
194.0

>  <database>  (1103) 
NewLiterature

>  <Document_ChEMBL_ID>  (1103) 
10.4155/fmc-2017-0164

$$$$

     RDKit          2D

 19 19  0  0  0  0  0  0  0  0999 V2000
   -7.4158    0.9456    0.0000 C   0  0  0  0  0  0  0  0  0  0  0  0
   -5.9908    1.4139    0.0000 C   0  0  0  0  0  0  0  0  0  0  0  0
   -4.8727    0.4139    0.0000 N   0  0  0  0  0  0  0  0  0  0  0  0
   -5.1797   -1.0544    0.0000 C   0  0  0  0  0  0  0  0  0  0  0  0
   -6.6047   -1.5226    0.0000 C   0  0  0  0  0  0  0  0  0  0  0  0
   -3.4477    0.8821    0.0000 C   0  0  0  0  0  0  0  0  0  0  0  0
   -2.3296   -0.1178    0.0000 C   0  0  0  0  0  0  0  0  0  0  0  0
   -0.9046    0.3504    0.0000 N   0  0  0  0  0  0  0  0  0  0  0  0
    0.2134   -0.6495    0.0000 C   0  0  0  0  0  0  0  0  0  0  0  0
   -0.0935   -2.1178    0.0000 O   0  0  0  0  0  0  0  0  0  0  0  0
    1.6385   -0.1813    0.0000 C   0  0  0  0  0  0  0  0  0  0  0  0
    1.9455    1.2870    0.0000 C   0  0  0  0  0  0  0  0  0  0  0  0
    3.3705    1.7553    0.0000 C   0  0  0  0  0  0  0  0  0  0  0  0
    4.4885    0.7553    0.0000 C   0  0  0  0  0  0  0  0  0  0  0  0
    5.9136    1.2236    0.0000 O   0  0  0  0  0  0  0  0  0  0  0  0
    7.0316    0.2236    0.0000 C   0  0  0  0  0  0  0  0  0  0  0  0
    4.1816   -0.7130    0.0000 C   0  0  0  0  0  0  0  0  0  0  0  0
    5.2996   -1.7129    0.0000 I   0  0  0  0  0  0  0  0  0  0  0  0
    2.7565   -1.1812    0.0000 C   0  0  0  0  0  0  0  0  0  0  0  0
  1  2  1  0
  2  3  1  0
  3  4  1  0
  4  5  1  0
  3  6  1  0
  6  7  1  0
  7  8  1  0
  8  9  1  0
  9 10  2  0
  9 11  1  0
 11 12  2  0
 12 13  1  0
 13 14  2  0
 14 15  1  0
 15 16  1  0
 14 17  1  0
 17 18  1  0
 17 19  2  0
 19 11  1  0
M  END
>  <Compound_Key>  (1104) 
P-123I-MBA

>  <Ki>  (1104) 
206.0

>  <database>  (1104) 
NewLiterature

>  <Document_ChEMBL_ID>  (1104) 
10.1016/j.bmc.2022.117032

$$$$

     RDKit          2D

 23 25  0  0  0  0  0  0  0  0999 V2000
    6.9035   -3.5108    0.0000 C   0  0  0  0  0  0  0  0  0  0  0  0
    6.9223   -2.0109    0.0000 O   0  0  0  0  0  0  0  0  0  0  0  0
    5.6328   -1.2447    0.0000 C   0  0  0  0  0  0  0  0  0  0  0  0
    4.3245   -1.9783    0.0000 C   0  0  0  0  0  0  0  0  0  0  0  0
    3.0349   -1.2121    0.0000 C   0  0  0  0  0  0  0  0  0  0  0  0
    3.0538    0.2878    0.0000 C   0  0  0  0  0  0  0  0  0  0  0  0
    1.7642    1.0540    0.0000 C   0  0  0  0  0  0  0  0  0  0  0  0
    0.4559    0.3204    0.0000 C   0  0  0  0  0  0  0  0  0  0  0  0
   -0.8336    1.0866    0.0000 C   0  0  0  0  0  0  0  0  0  0  0  0
   -2.1420    0.3530    0.0000 C   0  0  0  0  0  0  0  0  0  0  0  0
   -3.4315    1.1192    0.0000 C   0  0  0  0  0  0  0  0  0  0  0  0
   -4.7398    0.3856    0.0000 N   0  0  0  0  0  0  0  0  0  0  0  0
   -6.0294    1.1518    0.0000 C   0  0  0  0  0  0  0  0  0  0  0  0
   -7.3377    0.4182    0.0000 C   0  0  0  0  0  0  0  0  0  0  0  0
   -7.3565   -1.0817    0.0000 C   0  0  0  0  0  0  0  0  0  0  0  0
   -8.6649   -1.8153    0.0000 C   0  0  0  0  0  0  0  0  0  0  0  0
   -6.0670   -1.8479    0.0000 C   0  0  0  0  0  0  0  0  0  0  0  0
   -4.7587   -1.1143    0.0000 C   0  0  0  0  0  0  0  0  0  0  0  0
    1.7831    2.5539    0.0000 C   0  0  0  0  0  0  0  0  0  0  0  0
    3.0914    3.2876    0.0000 C   0  0  0  0  0  0  0  0  0  0  0  0
    4.3809    2.5213    0.0000 C   0  0  0  0  0  0  0  0  0  0  0  0
    4.3621    1.0214    0.0000 C   0  0  0  0  0  0  0  0  0  0  0  0
    5.6516    0.2552    0.0000 C   0  0  0  0  0  0  0  0  0  0  0  0
  1  2  1  0
  2  3  1  0
  3  4  2  0
  4  5  1  0
  5  6  2  0
  6  7  1  0
  7  8  1  0
  8  9  1  0
  9 10  1  0
 10 11  1  0
 11 12  1  0
 12 13  1  0
 13 14  1  0
 14 15  1  0
 15 16  1  0
 15 17  1  0
 17 18  1  0
  7 19  2  0
 19 20  1  0
 20 21  2  0
 21 22  1  0
 22 23  2  0
 23  3  1  0
 22  6  1  0
 18 12  1  0
M  END
>  <Compound_Key>  (1105) 
PB212

>  <Ki>  (1105) 
17.9

>  <database>  (1105) 
NewLiterature

>  <Document_ChEMBL_ID>  (1105) 
10.1038/s41598-023-39708-w

$$$$

     RDKit          2D

 27 30  0  0  0  0  0  0  0  0999 V2000
    9.2132   -2.2046    0.0000 C   0  0  0  0  0  0  0  0  0  0  0  0
    8.7643   -0.7734    0.0000 O   0  0  0  0  0  0  0  0  0  0  0  0
    7.3003   -0.4466    0.0000 C   0  0  0  0  0  0  0  0  0  0  0  0
    6.2853   -1.5510    0.0000 C   0  0  0  0  0  0  0  0  0  0  0  0
    4.8213   -1.2242    0.0000 C   0  0  0  0  0  0  0  0  0  0  0  0
    4.3724    0.2071    0.0000 C   0  0  0  0  0  0  0  0  0  0  0  0
    5.3874    1.3115    0.0000 C   0  0  0  0  0  0  0  0  0  0  0  0
    6.8513    0.9847    0.0000 C   0  0  0  0  0  0  0  0  0  0  0  0
    4.9384    2.7427    0.0000 C   0  0  0  0  0  0  0  0  0  0  0  0
    3.4745    3.0695    0.0000 C   0  0  0  0  0  0  0  0  0  0  0  0
    2.4594    1.9651    0.0000 C   0  0  0  0  0  0  0  0  0  0  0  0
    2.9084    0.5339    0.0000 C   0  0  0  0  0  0  0  0  0  0  0  0
    1.8934   -0.5706    0.0000 C   0  0  0  0  0  0  0  0  0  0  0  0
    0.4294   -0.2438    0.0000 C   0  0  0  0  0  0  0  0  0  0  0  0
   -0.5856   -1.3482    0.0000 C   0  0  0  0  0  0  0  0  0  0  0  0
   -2.0495   -1.0214    0.0000 N   0  0  0  0  0  0  0  0  0  0  0  0
   -2.4985    0.4099    0.0000 C   0  0  0  0  0  0  0  0  0  0  0  0
   -3.9625    0.7367    0.0000 C   0  0  0  0  0  0  0  0  0  0  0  0
   -4.9775   -0.3678    0.0000 N   0  0  0  0  0  0  0  0  0  0  0  0
   -6.4414   -0.0409    0.0000 C   0  0  0  0  0  0  0  0  0  0  0  0
   -6.8904    1.3903    0.0000 C   0  0  0  0  0  0  0  0  0  0  0  0
   -8.3544    1.7171    0.0000 C   0  0  0  0  0  0  0  0  0  0  0  0
   -9.3694    0.6127    0.0000 C   0  0  0  0  0  0  0  0  0  0  0  0
   -8.9204   -0.8186    0.0000 C   0  0  0  0  0  0  0  0  0  0  0  0
   -7.4564   -1.1454    0.0000 C   0  0  0  0  0  0  0  0  0  0  0  0
   -4.5285   -1.7990    0.0000 C   0  0  0  0  0  0  0  0  0  0  0  0
   -3.0645   -2.1258    0.0000 C   0  0  0  0  0  0  0  0  0  0  0  0
  1  2  1  0
  2  3  1  0
  3  4  2  0
  4  5  1  0
  5  6  2  0
  6  7  1  0
  7  8  2  0
  7  9  1  0
  9 10  1  0
 10 11  1  0
 11 12  1  0
 12 13  1  0
 13 14  1  0
 14 15  1  0
 15 16  1  0
 16 17  1  0
 17 18  1  0
 18 19  1  0
 19 20  1  0
 20 21  1  0
 21 22  1  0
 22 23  1  0
 23 24  1  0
 24 25  1  0
 19 26  1  0
 26 27  1  0
  8  3  1  0
 27 16  1  0
 12  6  1  0
 25 20  1  0
M  END
>  <ChemBL_ID>  (1106) 
CHEMBL77906

>  <Compound_Key>  (1106) 
34

>  <Ki>  (1106) 
5.42

>  <database>  (1106) 
CHEMBL

>  <Assay_ChEMBL_ID>  (1106) 
CHEMBL807586

>  <Document_ChEMBL_ID>  (1106) 
CHEMBL1148440

$$$$

     RDKit          2D

 26 28  0  0  0  0  0  0  0  0999 V2000
    4.1408   -2.2233    0.0000 O   0  0  0  0  0  0  0  0  0  0  0  0
    4.4270   -0.7509    0.0000 C   0  0  0  0  0  0  0  0  0  0  0  0
    3.2949    0.2332    0.0000 C   0  0  0  0  0  0  0  0  0  0  0  0
    1.8767   -0.2552    0.0000 C   0  0  0  0  0  0  0  0  0  0  0  0
    0.7446    0.7289    0.0000 C   0  0  0  0  0  0  0  0  0  0  0  0
   -0.6737    0.2406    0.0000 N   0  0  0  0  0  0  0  0  0  0  0  0
   -0.8490   -1.2491    0.0000 C   0  0  0  0  0  0  0  0  0  0  0  0
   -2.1231   -2.0409    0.0000 C   0  0  0  0  0  0  0  0  0  0  0  0
   -3.5364   -1.5384    0.0000 C   0  0  0  0  0  0  0  0  0  0  0  0
   -4.0248   -0.1201    0.0000 N   0  0  0  0  0  0  0  0  0  0  0  0
   -5.5145    0.0553    0.0000 C   0  0  0  0  0  0  0  0  0  0  0  0
   -6.1075    1.4331    0.0000 C   0  0  0  0  0  0  0  0  0  0  0  0
   -7.5972    1.6084    0.0000 C   0  0  0  0  0  0  0  0  0  0  0  0
   -8.4939    0.4060    0.0000 C   0  0  0  0  0  0  0  0  0  0  0  0
   -9.9836    0.5814    0.0000 Cl  0  0  0  0  0  0  0  0  0  0  0  0
   -7.9010   -0.9718    0.0000 C   0  0  0  0  0  0  0  0  0  0  0  0
   -6.4112   -1.1472    0.0000 C   0  0  0  0  0  0  0  0  0  0  0  0
   -3.2204    1.1460    0.0000 C   0  0  0  0  0  0  0  0  0  0  0  0
   -1.7290    1.3065    0.0000 C   0  0  0  0  0  0  0  0  0  0  0  0
    5.8453   -0.2625    0.0000 C   0  0  0  0  0  0  0  0  0  0  0  0
    6.9774   -1.2466    0.0000 C   0  0  0  0  0  0  0  0  0  0  0  0
    8.3956   -0.7582    0.0000 C   0  0  0  0  0  0  0  0  0  0  0  0
    8.6818    0.7142    0.0000 C   0  0  0  0  0  0  0  0  0  0  0  0
   10.1001    1.2026    0.0000 F   0  0  0  0  0  0  0  0  0  0  0  0
    7.5498    1.6983    0.0000 C   0  0  0  0  0  0  0  0  0  0  0  0
    6.1315    1.2099    0.0000 C   0  0  0  0  0  0  0  0  0  0  0  0
  1  2  2  0
  2  3  1  0
  3  4  1  0
  4  5  1  0
  5  6  1  0
  6  7  1  0
  7  8  1  0
  8  9  1  0
  9 10  1  0
 10 11  1  0
 11 12  2  0
 12 13  1  0
 13 14  2  0
 14 15  1  0
 14 16  1  0
 16 17  2  0
 10 18  1  0
 18 19  1  0
  2 20  1  0
 20 21  2  0
 21 22  1  0
 22 23  2  0
 23 24  1  0
 23 25  1  0
 25 26  2  0
 19  6  1  0
 26 20  1  0
 17 11  1  0
M  END
>  <Compound_Key>  (1107) 
SYA013

>  <Ki>  (1107) 
5.6

>  <database>  (1107) 
NewLiterature

>  <Document_ChEMBL_ID>  (1107) 
10.1016/j.bmc.2022.117032

$$$$

     RDKit          2D

 27 30  0  0  0  0  0  0  0  0999 V2000
    4.3264   -2.9447    0.0000 O   0  0  0  0  0  0  0  0  0  0  0  0
    4.4328   -1.4485    0.0000 C   0  0  0  0  0  0  0  0  0  0  0  0
    5.7058   -0.6551    0.0000 C   0  0  0  0  0  0  0  0  0  0  0  0
    7.1472   -1.0703    0.0000 C   0  0  0  0  0  0  0  0  0  0  0  0
    8.2275   -0.0296    0.0000 C   0  0  0  0  0  0  0  0  0  0  0  0
    7.8664    1.4263    0.0000 C   0  0  0  0  0  0  0  0  0  0  0  0
    8.9466    2.4670    0.0000 F   0  0  0  0  0  0  0  0  0  0  0  0
    6.4250    1.8415    0.0000 C   0  0  0  0  0  0  0  0  0  0  0  0
    5.3447    0.8008    0.0000 C   0  0  0  0  0  0  0  0  0  0  0  0
    3.8485    0.9072    0.0000 C   0  0  0  0  0  0  0  0  0  0  0  0
    3.2849   -0.4829    0.0000 C   0  0  0  0  0  0  0  0  0  0  0  0
    1.8290   -0.8441    0.0000 C   0  0  0  0  0  0  0  0  0  0  0  0
    0.7883    0.2362    0.0000 C   0  0  0  0  0  0  0  0  0  0  0  0
   -0.6675   -0.1249    0.0000 N   0  0  0  0  0  0  0  0  0  0  0  0
   -0.9738   -1.5933    0.0000 C   0  0  0  0  0  0  0  0  0  0  0  0
   -2.3129   -2.2694    0.0000 C   0  0  0  0  0  0  0  0  0  0  0  0
   -3.6763   -1.6440    0.0000 C   0  0  0  0  0  0  0  0  0  0  0  0
   -4.0374   -0.1881    0.0000 N   0  0  0  0  0  0  0  0  0  0  0  0
   -5.5058    0.1182    0.0000 C   0  0  0  0  0  0  0  0  0  0  0  0
   -5.9747    1.5430    0.0000 C   0  0  0  0  0  0  0  0  0  0  0  0
   -7.4431    1.8493    0.0000 C   0  0  0  0  0  0  0  0  0  0  0  0
   -8.4426    0.7308    0.0000 C   0  0  0  0  0  0  0  0  0  0  0  0
   -9.9110    1.0371    0.0000 Cl  0  0  0  0  0  0  0  0  0  0  0  0
   -7.9737   -0.6940    0.0000 C   0  0  0  0  0  0  0  0  0  0  0  0
   -6.5053   -1.0003    0.0000 C   0  0  0  0  0  0  0  0  0  0  0  0
   -3.1243    1.0019    0.0000 C   0  0  0  0  0  0  0  0  0  0  0  0
   -1.6246    1.0301    0.0000 C   0  0  0  0  0  0  0  0  0  0  0  0
  1  2  2  0
  2  3  1  0
  3  4  2  0
  4  5  1  0
  5  6  2  0
  6  7  1  0
  6  8  1  0
  8  9  2  0
  9 10  1  0
 10 11  1  0
 11 12  1  0
 12 13  1  0
 13 14  1  0
 14 15  1  0
 15 16  1  0
 16 17  1  0
 17 18  1  0
 18 19  1  0
 19 20  2  0
 20 21  1  0
 21 22  2  0
 22 23  1  0
 22 24  1  0
 24 25  2  0
 18 26  1  0
 26 27  1  0
 11  2  1  0
 27 14  1  0
  9  3  1  0
 25 19  1  0
M  END
>  <Compound_Key>  (1108) 
SYA013-D-1

>  <Ki>  (1108) 
0.6

>  <database>  (1108) 
NewLiterature

>  <Document_ChEMBL_ID>  (1108) 
10.1016/j.bmc.2022.117032

$$$$

     RDKit          2D

 27 30  0  0  0  0  0  0  0  0999 V2000
    4.3264   -2.9447    0.0000 O   0  0  0  0  0  0  0  0  0  0  0  0
    4.4328   -1.4485    0.0000 C   0  0  0  0  0  0  0  0  0  0  0  0
    5.7058   -0.6551    0.0000 C   0  0  0  0  0  0  0  0  0  0  0  0
    7.1472   -1.0703    0.0000 C   0  0  0  0  0  0  0  0  0  0  0  0
    8.2275   -0.0296    0.0000 C   0  0  0  0  0  0  0  0  0  0  0  0
    7.8664    1.4263    0.0000 C   0  0  0  0  0  0  0  0  0  0  0  0
    8.9466    2.4670    0.0000 F   0  0  0  0  0  0  0  0  0  0  0  0
    6.4250    1.8415    0.0000 C   0  0  0  0  0  0  0  0  0  0  0  0
    5.3447    0.8008    0.0000 C   0  0  0  0  0  0  0  0  0  0  0  0
    3.8485    0.9072    0.0000 C   0  0  0  0  0  0  0  0  0  0  0  0
    3.2849   -0.4829    0.0000 C   0  0  0  0  0  0  0  0  0  0  0  0
    1.8290   -0.8441    0.0000 C   0  0  0  0  0  0  0  0  0  0  0  0
    0.7883    0.2362    0.0000 C   0  0  0  0  0  0  0  0  0  0  0  0
   -0.6675   -0.1249    0.0000 N   0  0  0  0  0  0  0  0  0  0  0  0
   -0.9738   -1.5933    0.0000 C   0  0  0  0  0  0  0  0  0  0  0  0
   -2.3129   -2.2694    0.0000 C   0  0  0  0  0  0  0  0  0  0  0  0
   -3.6763   -1.6440    0.0000 C   0  0  0  0  0  0  0  0  0  0  0  0
   -4.0374   -0.1881    0.0000 N   0  0  0  0  0  0  0  0  0  0  0  0
   -5.5058    0.1182    0.0000 C   0  0  0  0  0  0  0  0  0  0  0  0
   -5.9747    1.5430    0.0000 C   0  0  0  0  0  0  0  0  0  0  0  0
   -7.4431    1.8493    0.0000 C   0  0  0  0  0  0  0  0  0  0  0  0
   -8.4426    0.7308    0.0000 C   0  0  0  0  0  0  0  0  0  0  0  0
   -9.9110    1.0371    0.0000 Cl  0  0  0  0  0  0  0  0  0  0  0  0
   -7.9737   -0.6940    0.0000 C   0  0  0  0  0  0  0  0  0  0  0  0
   -6.5053   -1.0003    0.0000 N   0  0  0  0  0  0  0  0  0  0  0  0
   -3.1243    1.0019    0.0000 C   0  0  0  0  0  0  0  0  0  0  0  0
   -1.6246    1.0301    0.0000 C   0  0  0  0  0  0  0  0  0  0  0  0
  1  2  2  0
  2  3  1  0
  3  4  2  0
  4  5  1  0
  5  6  2  0
  6  7  1  0
  6  8  1  0
  8  9  2  0
  9 10  1  0
 10 11  1  0
 11 12  1  0
 12 13  1  0
 13 14  1  0
 14 15  1  0
 15 16  1  0
 16 17  1  0
 17 18  1  0
 18 19  1  0
 19 20  2  0
 20 21  1  0
 21 22  2  0
 22 23  1  0
 22 24  1  0
 24 25  2  0
 18 26  1  0
 26 27  1  0
 11  2  1  0
 27 14  1  0
  9  3  1  0
 25 19  1  0
M  END
>  <Compound_Key>  (1109) 
SYA013-D-2

>  <Ki>  (1109) 
0.7

>  <database>  (1109) 
NewLiterature

>  <Document_ChEMBL_ID>  (1109) 
10.1016/j.bmc.2022.117032

$$$$

     RDKit          2D

 27 29  0  0  0  0  0  0  0  0999 V2000
    6.1284    3.8034    0.0000 O   0  0  0  0  0  0  0  0  0  0  0  0
    6.1967    2.3050    0.0000 N   0  0  0  0  0  0  0  0  0  0  0  0
    4.9332    1.4966    0.0000 C   0  0  0  0  0  0  0  0  0  0  0  0
    3.6014    2.1866    0.0000 C   0  0  0  0  0  0  0  0  0  0  0  0
    2.3378    1.3782    0.0000 C   0  0  0  0  0  0  0  0  0  0  0  0
    1.0060    2.0683    0.0000 C   0  0  0  0  0  0  0  0  0  0  0  0
   -0.2575    1.2599    0.0000 N   0  0  0  0  0  0  0  0  0  0  0  0
   -0.0774   -0.2293    0.0000 C   0  0  0  0  0  0  0  0  0  0  0  0
   -1.1294   -1.2986    0.0000 C   0  0  0  0  0  0  0  0  0  0  0  0
   -2.6213   -1.1428    0.0000 C   0  0  0  0  0  0  0  0  0  0  0  0
   -3.4297    0.1207    0.0000 N   0  0  0  0  0  0  0  0  0  0  0  0
   -4.9188   -0.0594    0.0000 C   0  0  0  0  0  0  0  0  0  0  0  0
   -5.8194    1.1402    0.0000 C   0  0  0  0  0  0  0  0  0  0  0  0
   -7.3085    0.9601    0.0000 C   0  0  0  0  0  0  0  0  0  0  0  0
   -7.8971   -0.4196    0.0000 C   0  0  0  0  0  0  0  0  0  0  0  0
   -9.3863   -0.5998    0.0000 Cl  0  0  0  0  0  0  0  0  0  0  0  0
   -6.9966   -1.6192    0.0000 C   0  0  0  0  0  0  0  0  0  0  0  0
   -5.5074   -1.4391    0.0000 C   0  0  0  0  0  0  0  0  0  0  0  0
   -2.9458    1.5405    0.0000 C   0  0  0  0  0  0  0  0  0  0  0  0
   -1.5341    2.0475    0.0000 C   0  0  0  0  0  0  0  0  0  0  0  0
    5.0015   -0.0019    0.0000 C   0  0  0  0  0  0  0  0  0  0  0  0
    3.7380   -0.8103    0.0000 C   0  0  0  0  0  0  0  0  0  0  0  0
    3.8064   -2.3087    0.0000 C   0  0  0  0  0  0  0  0  0  0  0  0
    5.1382   -2.9988    0.0000 C   0  0  0  0  0  0  0  0  0  0  0  0
    5.2065   -4.4972    0.0000 F   0  0  0  0  0  0  0  0  0  0  0  0
    6.4017   -2.1904    0.0000 C   0  0  0  0  0  0  0  0  0  0  0  0
    6.3334   -0.6919    0.0000 C   0  0  0  0  0  0  0  0  0  0  0  0
  1  2  1  0
  2  3  2  0
  3  4  1  0
  4  5  1  0
  5  6  1  0
  6  7  1  0
  7  8  1  0
  8  9  1  0
  9 10  1  0
 10 11  1  0
 11 12  1  0
 12 13  2  0
 13 14  1  0
 14 15  2  0
 15 16  1  0
 15 17  1  0
 17 18  2  0
 11 19  1  0
 19 20  1  0
  3 21  1  0
 21 22  2  0
 22 23  1  0
 23 24  2  0
 24 25  1  0
 24 26  1  0
 26 27  2  0
 20  7  1  0
 27 21  1  0
 18 12  1  0
M  END
>  <Compound_Key>  (1110) 
SYA013-D-3

>  <Ki>  (1110) 
3.5

>  <database>  (1110) 
NewLiterature

>  <Document_ChEMBL_ID>  (1110) 
10.1016/j.bmc.2022.117032

$$$$

     RDKit          2D

 28 31  0  0  0  0  0  0  0  0999 V2000
    2.9143   -3.4358    0.0000 O   0  0  0  0  0  0  0  0  0  0  0  0
    4.2550   -2.7630    0.0000 N   0  0  0  0  0  0  0  0  0  0  0  0
    4.3427   -1.2656    0.0000 C   0  0  0  0  0  0  0  0  0  0  0  0
    5.6057   -0.4563    0.0000 C   0  0  0  0  0  0  0  0  0  0  0  0
    7.0521   -0.8534    0.0000 C   0  0  0  0  0  0  0  0  0  0  0  0
    8.1193    0.2007    0.0000 C   0  0  0  0  0  0  0  0  0  0  0  0
    7.7399    1.6520    0.0000 C   0  0  0  0  0  0  0  0  0  0  0  0
    8.8071    2.7061    0.0000 F   0  0  0  0  0  0  0  0  0  0  0  0
    6.2934    2.0490    0.0000 C   0  0  0  0  0  0  0  0  0  0  0  0
    5.2263    0.9949    0.0000 C   0  0  0  0  0  0  0  0  0  0  0  0
    3.7289    1.0826    0.0000 C   0  0  0  0  0  0  0  0  0  0  0  0
    3.1828   -0.3145    0.0000 C   0  0  0  0  0  0  0  0  0  0  0  0
    1.7315   -0.6938    0.0000 C   0  0  0  0  0  0  0  0  0  0  0  0
    0.6774    0.3733    0.0000 C   0  0  0  0  0  0  0  0  0  0  0  0
   -0.7739   -0.0060    0.0000 N   0  0  0  0  0  0  0  0  0  0  0  0
   -1.0618   -1.4782    0.0000 C   0  0  0  0  0  0  0  0  0  0  0  0
   -2.3922   -2.1709    0.0000 C   0  0  0  0  0  0  0  0  0  0  0  0
   -3.7633   -1.5627    0.0000 C   0  0  0  0  0  0  0  0  0  0  0  0
   -4.1427   -0.1114    0.0000 N   0  0  0  0  0  0  0  0  0  0  0  0
   -5.6148    0.1765    0.0000 C   0  0  0  0  0  0  0  0  0  0  0  0
   -6.1015    1.5953    0.0000 C   0  0  0  0  0  0  0  0  0  0  0  0
   -7.5737    1.8832    0.0000 C   0  0  0  0  0  0  0  0  0  0  0  0
   -8.5590    0.7522    0.0000 C   0  0  0  0  0  0  0  0  0  0  0  0
  -10.0311    1.0401    0.0000 Cl  0  0  0  0  0  0  0  0  0  0  0  0
   -8.0723   -0.6666    0.0000 C   0  0  0  0  0  0  0  0  0  0  0  0
   -6.6002   -0.9545    0.0000 C   0  0  0  0  0  0  0  0  0  0  0  0
   -3.2446    1.0900    0.0000 C   0  0  0  0  0  0  0  0  0  0  0  0
   -1.7453    1.1369    0.0000 C   0  0  0  0  0  0  0  0  0  0  0  0
  1  2  1  0
  2  3  2  0
  3  4  1  0
  4  5  2  0
  5  6  1  0
  6  7  2  0
  7  8  1  0
  7  9  1  0
  9 10  2  0
 10 11  1  0
 11 12  1  0
 12 13  1  0
 13 14  1  0
 14 15  1  0
 15 16  1  0
 16 17  1  0
 17 18  1  0
 18 19  1  0
 19 20  1  0
 20 21  2  0
 21 22  1  0
 22 23  2  0
 23 24  1  0
 23 25  1  0
 25 26  2  0
 19 27  1  0
 27 28  1  0
 12  3  1  0
 28 15  1  0
 10  4  1  0
 26 20  1  0
M  END
>  <Compound_Key>  (1111) 
SYA013-D-4

>  <Ki>  (1111) 
407.0

>  <database>  (1111) 
NewLiterature

>  <Document_ChEMBL_ID>  (1111) 
10.1016/j.bmc.2022.117032

$$$$

     RDKit          2D

 27 30  0  0  0  0  0  0  0  0999 V2000
   -1.6524   -6.6161    0.0000 O   0  0  0  0  0  0  0  0  0  0  0  0
   -1.9163   -5.1395    0.0000 C   0  0  0  0  0  0  0  0  0  0  0  0
   -0.7694   -4.1727    0.0000 C   0  0  0  0  0  0  0  0  0  0  0  0
   -1.0333   -2.6961    0.0000 C   0  0  0  0  0  0  0  0  0  0  0  0
   -2.4440   -2.1863    0.0000 C   0  0  0  0  0  0  0  0  0  0  0  0
   -2.7079   -0.7097    0.0000 N   0  0  0  0  0  0  0  0  0  0  0  0
   -4.1186   -0.1999    0.0000 C   0  0  0  0  0  0  0  0  0  0  0  0
   -4.3825    1.2767    0.0000 C   0  0  0  0  0  0  0  0  0  0  0  0
   -3.2357    2.2435    0.0000 C   0  0  0  0  0  0  0  0  0  0  0  0
   -3.4996    3.7201    0.0000 C   0  0  0  0  0  0  0  0  0  0  0  0
   -4.9103    4.2299    0.0000 C   0  0  0  0  0  0  0  0  0  0  0  0
   -6.0571    3.2631    0.0000 C   0  0  0  0  0  0  0  0  0  0  0  0
   -5.7932    1.7865    0.0000 C   0  0  0  0  0  0  0  0  0  0  0  0
   -1.5611    0.2572    0.0000 C   0  0  0  0  0  0  0  0  0  0  0  0
   -0.1504   -0.2526    0.0000 C   0  0  0  0  0  0  0  0  0  0  0  0
    0.1135   -1.7292    0.0000 N   0  0  0  0  0  0  0  0  0  0  0  0
    1.5243   -2.2390    0.0000 C   0  0  0  0  0  0  0  0  0  0  0  0
    2.6711   -1.2722    0.0000 C   0  0  0  0  0  0  0  0  0  0  0  0
    4.0818   -1.7819    0.0000 C   0  0  0  0  0  0  0  0  0  0  0  0
    5.2286   -0.8151    0.0000 C   0  0  0  0  0  0  0  0  0  0  0  0
    4.9648    0.6615    0.0000 C   0  0  0  0  0  0  0  0  0  0  0  0
    6.1116    1.6283    0.0000 C   0  0  0  0  0  0  0  0  0  0  0  0
    5.8477    3.1049    0.0000 C   0  0  0  0  0  0  0  0  0  0  0  0
    4.4370    3.6147    0.0000 C   0  0  0  0  0  0  0  0  0  0  0  0
    3.2902    2.6479    0.0000 C   0  0  0  0  0  0  0  0  0  0  0  0
    3.5540    1.1713    0.0000 C   0  0  0  0  0  0  0  0  0  0  0  0
    2.4072    0.2044    0.0000 C   0  0  0  0  0  0  0  0  0  0  0  0
  1  2  1  0
  2  3  1  0
  4  3  1  1
  4  5  1  0
  5  6  1  0
  6  7  1  0
  7  8  1  0
  8  9  1  0
  9 10  1  0
 10 11  1  0
 11 12  1  0
 12 13  1  0
  6 14  1  0
 14 15  1  0
 15 16  1  0
 16 17  1  0
 17 18  1  0
 18 19  2  0
 19 20  1  0
 20 21  2  0
 21 22  1  0
 22 23  2  0
 23 24  1  0
 24 25  2  0
 25 26  1  0
 26 27  2  0
 16  4  1  0
 27 18  1  0
 13  8  1  0
 26 21  1  0
M  END
>  <Compound_Key>  (1112) 
SYA013-D-5

>  <Ki>  (1112) 
31.0

>  <database>  (1112) 
NewLiterature

>  <Document_ChEMBL_ID>  (1112) 
10.1016/j.bmc.2022.117032

$$$$

     RDKit          2D

 23 25  0  0  0  0  0  0  0  0999 V2000
    6.9035   -3.5108    0.0000 C   0  0  0  0  0  0  0  0  0  0  0  0
    6.9223   -2.0109    0.0000 O   0  0  0  0  0  0  0  0  0  0  0  0
    5.6328   -1.2447    0.0000 C   0  0  0  0  0  0  0  0  0  0  0  0
    4.3245   -1.9783    0.0000 C   0  0  0  0  0  0  0  0  0  0  0  0
    3.0349   -1.2121    0.0000 C   0  0  0  0  0  0  0  0  0  0  0  0
    3.0538    0.2878    0.0000 C   0  0  0  0  0  0  0  0  0  0  0  0
    4.3621    1.0214    0.0000 C   0  0  0  0  0  0  0  0  0  0  0  0
    5.6516    0.2552    0.0000 C   0  0  0  0  0  0  0  0  0  0  0  0
    4.3809    2.5213    0.0000 C   0  0  0  0  0  0  0  0  0  0  0  0
    3.0914    3.2876    0.0000 C   0  0  0  0  0  0  0  0  0  0  0  0
    1.7831    2.5539    0.0000 C   0  0  0  0  0  0  0  0  0  0  0  0
    1.7642    1.0540    0.0000 C   0  0  0  0  0  0  0  0  0  0  0  0
    0.4559    0.3204    0.0000 C   0  0  0  0  0  0  0  0  0  0  0  0
   -0.8336    1.0866    0.0000 C   0  0  0  0  0  0  0  0  0  0  0  0
   -2.1420    0.3530    0.0000 C   0  0  0  0  0  0  0  0  0  0  0  0
   -3.4315    1.1192    0.0000 C   0  0  0  0  0  0  0  0  0  0  0  0
   -4.7398    0.3856    0.0000 N   0  0  0  0  0  0  0  0  0  0  0  0
   -6.0294    1.1518    0.0000 C   0  0  0  0  0  0  0  0  0  0  0  0
   -7.3377    0.4182    0.0000 C   0  0  0  0  0  0  0  0  0  0  0  0
   -7.3565   -1.0817    0.0000 C   0  0  0  0  0  0  0  0  0  0  0  0
   -8.6649   -1.8153    0.0000 C   0  0  0  0  0  0  0  0  0  0  0  0
   -6.0670   -1.8479    0.0000 C   0  0  0  0  0  0  0  0  0  0  0  0
   -4.7587   -1.1143    0.0000 C   0  0  0  0  0  0  0  0  0  0  0  0
  1  2  1  0
  2  3  1  0
  3  4  2  0
  4  5  1  0
  5  6  2  0
  6  7  1  0
  7  8  2  0
  7  9  1  0
  9 10  1  0
 10 11  1  0
 11 12  1  0
 12 13  1  0
 13 14  1  0
 14 15  1  0
 15 16  1  0
 16 17  1  0
 17 18  1  0
 18 19  1  0
 19 20  1  0
 20 21  1  0
 20 22  1  0
 22 23  1  0
  8  3  1  0
 23 17  1  0
 12  6  1  0
M  END
>  <Compound_Key>  (1113) 
PB190

>  <Ki>  (1113) 
36.3

>  <database>  (1113) 
NewLiterature

>  <Document_ChEMBL_ID>  (1113) 
10.1038/s41598-023-39707-w

$$$$

     RDKit          2D

 27 30  0  0  0  0  0  0  0  0999 V2000
    2.0859   -4.1303    0.0000 O   0  0  0  0  0  0  0  0  0  0  0  0
    0.8824   -3.2350    0.0000 C   0  0  0  0  0  0  0  0  0  0  0  0
    1.0560   -1.7451    0.0000 C   0  0  0  0  0  0  0  0  0  0  0  0
   -0.1475   -0.8498    0.0000 C   0  0  0  0  0  0  0  0  0  0  0  0
   -1.5246   -1.4443    0.0000 C   0  0  0  0  0  0  0  0  0  0  0  0
   -2.7281   -0.5490    0.0000 N   0  0  0  0  0  0  0  0  0  0  0  0
   -4.1052   -1.1436    0.0000 C   0  0  0  0  0  0  0  0  0  0  0  0
   -5.3087   -0.2483    0.0000 C   0  0  0  0  0  0  0  0  0  0  0  0
   -5.1351    1.2417    0.0000 C   0  0  0  0  0  0  0  0  0  0  0  0
   -6.3385    2.1370    0.0000 C   0  0  0  0  0  0  0  0  0  0  0  0
   -7.7157    1.5424    0.0000 C   0  0  0  0  0  0  0  0  0  0  0  0
   -7.8893    0.0525    0.0000 C   0  0  0  0  0  0  0  0  0  0  0  0
   -6.6858   -0.8428    0.0000 C   0  0  0  0  0  0  0  0  0  0  0  0
   -2.5544    0.9409    0.0000 C   0  0  0  0  0  0  0  0  0  0  0  0
   -1.1773    1.5355    0.0000 C   0  0  0  0  0  0  0  0  0  0  0  0
    0.0262    0.6402    0.0000 N   0  0  0  0  0  0  0  0  0  0  0  0
    1.4033    1.2347    0.0000 C   0  0  0  0  0  0  0  0  0  0  0  0
    2.6068    0.3394    0.0000 C   0  0  0  0  0  0  0  0  0  0  0  0
    2.4331   -1.1505    0.0000 C   0  0  0  0  0  0  0  0  0  0  0  0
    3.6366   -2.0458    0.0000 C   0  0  0  0  0  0  0  0  0  0  0  0
    5.0138   -1.4512    0.0000 C   0  0  0  0  0  0  0  0  0  0  0  0
    5.1874    0.0387    0.0000 C   0  0  0  0  0  0  0  0  0  0  0  0
    6.5645    0.6333    0.0000 C   0  0  0  0  0  0  0  0  0  0  0  0
    6.7381    2.1232    0.0000 C   0  0  0  0  0  0  0  0  0  0  0  0
    5.5347    3.0185    0.0000 C   0  0  0  0  0  0  0  0  0  0  0  0
    4.1575    2.4239    0.0000 C   0  0  0  0  0  0  0  0  0  0  0  0
    3.9839    0.9340    0.0000 C   0  0  0  0  0  0  0  0  0  0  0  0
  1  2  1  0
  2  3  1  0
  4  3  1  6
  4  5  1  0
  5  6  1  0
  6  7  1  0
  7  8  1  0
  8  9  1  0
  9 10  1  0
 10 11  1  0
 11 12  1  0
 12 13  1  0
  6 14  1  0
 14 15  1  0
 15 16  1  0
 16 17  1  0
 17 18  1  0
 18 19  2  0
 19 20  1  0
 20 21  2  0
 21 22  1  0
 22 23  2  0
 23 24  1  0
 24 25  2  0
 25 26  1  0
 26 27  2  0
 16  4  1  0
 27 18  1  0
 13  8  1  0
 27 22  1  0
M  END
>  <Compound_Key>  (1114) 
SYA013-D-ent-6

>  <Ki>  (1114) 
37.0

>  <database>  (1114) 
NewLiterature

>  <Document_ChEMBL_ID>  (1114) 
10.1016/j.bmc.2022.117032

$$$$

     RDKit          2D

 29 32  0  0  0  0  0  0  0  0999 V2000
   -3.4649   -6.3251    0.0000 O   0  0  0  0  0  0  0  0  0  0  0  0
   -3.5040   -4.8256    0.0000 C   0  0  0  0  0  0  0  0  0  0  0  0
   -2.2249   -4.0420    0.0000 C   0  0  0  0  0  0  0  0  0  0  0  0
   -2.2639   -2.5425    0.0000 C   0  0  0  0  0  0  0  0  0  0  0  0
   -3.5820   -1.8266    0.0000 C   0  0  0  0  0  0  0  0  0  0  0  0
   -3.6211   -0.3271    0.0000 N   0  0  0  0  0  0  0  0  0  0  0  0
   -4.9392    0.3888    0.0000 C   0  0  0  0  0  0  0  0  0  0  0  0
   -4.9782    1.8883    0.0000 C   0  0  0  0  0  0  0  0  0  0  0  0
   -3.6991    2.6719    0.0000 C   0  0  0  0  0  0  0  0  0  0  0  0
   -3.7382    4.1714    0.0000 C   0  0  0  0  0  0  0  0  0  0  0  0
   -5.0563    4.8873    0.0000 C   0  0  0  0  0  0  0  0  0  0  0  0
   -6.3354    4.1038    0.0000 C   0  0  0  0  0  0  0  0  0  0  0  0
   -6.2963    2.6043    0.0000 C   0  0  0  0  0  0  0  0  0  0  0  0
   -2.3420    0.4564    0.0000 C   0  0  0  0  0  0  0  0  0  0  0  0
   -1.0239   -0.2595    0.0000 C   0  0  0  0  0  0  0  0  0  0  0  0
   -0.9848   -1.7590    0.0000 N   0  0  0  0  0  0  0  0  0  0  0  0
    0.3333   -2.4749    0.0000 C   0  0  0  0  0  0  0  0  0  0  0  0
    1.6124   -1.6914    0.0000 C   0  0  0  0  0  0  0  0  0  0  0  0
    2.9305   -2.4073    0.0000 C   0  0  0  0  0  0  0  0  0  0  0  0
    4.2096   -1.6238    0.0000 C   0  0  0  0  0  0  0  0  0  0  0  0
    4.1705   -0.1243    0.0000 C   0  0  0  0  0  0  0  0  0  0  0  0
    5.4496    0.6593    0.0000 C   0  0  0  0  0  0  0  0  0  0  0  0
    6.7677   -0.0567    0.0000 C   0  0  0  0  0  0  0  0  0  0  0  0
    8.0468    0.7269    0.0000 C   0  0  0  0  0  0  0  0  0  0  0  0
    8.0078    2.2264    0.0000 C   0  0  0  0  0  0  0  0  0  0  0  0
    6.6897    2.9423    0.0000 C   0  0  0  0  0  0  0  0  0  0  0  0
    5.4106    2.1588    0.0000 C   0  0  0  0  0  0  0  0  0  0  0  0
    2.8524    0.5917    0.0000 C   0  0  0  0  0  0  0  0  0  0  0  0
    1.5733   -0.1919    0.0000 C   0  0  0  0  0  0  0  0  0  0  0  0
  1  2  1  0
  2  3  1  0
  4  3  1  1
  4  5  1  0
  5  6  1  0
  6  7  1  0
  7  8  1  0
  8  9  1  0
  9 10  1  0
 10 11  1  0
 11 12  1  0
 12 13  1  0
  6 14  1  0
 14 15  1  0
 15 16  1  0
 16 17  1  0
 17 18  1  0
 18 19  2  0
 19 20  1  0
 20 21  2  0
 21 22  1  0
 22 23  2  0
 23 24  1  0
 24 25  2  0
 25 26  1  0
 26 27  2  0
 21 28  1  0
 28 29  2  0
 16  4  1  0
 29 18  1  0
 13  8  1  0
 27 22  1  0
M  END
>  <Compound_Key>  (1115) 
SYA013-D-7

>  <Ki>  (1115) 
43.0

>  <database>  (1115) 
NewLiterature

>  <Document_ChEMBL_ID>  (1115) 
10.1016/j.bmc.2022.117032

$$$$

     RDKit          2D

 29 32  0  0  0  0  0  0  0  0999 V2000
   -3.4649   -6.3251    0.0000 O   0  0  0  0  0  0  0  0  0  0  0  0
   -3.5040   -4.8256    0.0000 C   0  0  0  0  0  0  0  0  0  0  0  0
   -2.2249   -4.0420    0.0000 C   0  0  0  0  0  0  0  0  0  0  0  0
   -2.2639   -2.5425    0.0000 C   0  0  0  0  0  0  0  0  0  0  0  0
   -3.5820   -1.8266    0.0000 C   0  0  0  0  0  0  0  0  0  0  0  0
   -3.6211   -0.3271    0.0000 N   0  0  0  0  0  0  0  0  0  0  0  0
   -4.9392    0.3888    0.0000 C   0  0  0  0  0  0  0  0  0  0  0  0
   -4.9782    1.8883    0.0000 C   0  0  0  0  0  0  0  0  0  0  0  0
   -3.6991    2.6719    0.0000 C   0  0  0  0  0  0  0  0  0  0  0  0
   -3.7382    4.1714    0.0000 C   0  0  0  0  0  0  0  0  0  0  0  0
   -5.0563    4.8873    0.0000 C   0  0  0  0  0  0  0  0  0  0  0  0
   -6.3354    4.1038    0.0000 C   0  0  0  0  0  0  0  0  0  0  0  0
   -6.2963    2.6043    0.0000 C   0  0  0  0  0  0  0  0  0  0  0  0
   -2.3420    0.4564    0.0000 C   0  0  0  0  0  0  0  0  0  0  0  0
   -1.0239   -0.2595    0.0000 C   0  0  0  0  0  0  0  0  0  0  0  0
   -0.9848   -1.7590    0.0000 N   0  0  0  0  0  0  0  0  0  0  0  0
    0.3333   -2.4749    0.0000 C   0  0  0  0  0  0  0  0  0  0  0  0
    1.6124   -1.6914    0.0000 C   0  0  0  0  0  0  0  0  0  0  0  0
    2.9305   -2.4073    0.0000 C   0  0  0  0  0  0  0  0  0  0  0  0
    4.2096   -1.6238    0.0000 C   0  0  0  0  0  0  0  0  0  0  0  0
    4.1705   -0.1243    0.0000 C   0  0  0  0  0  0  0  0  0  0  0  0
    5.4496    0.6593    0.0000 C   0  0  0  0  0  0  0  0  0  0  0  0
    6.7677   -0.0567    0.0000 C   0  0  0  0  0  0  0  0  0  0  0  0
    8.0468    0.7269    0.0000 C   0  0  0  0  0  0  0  0  0  0  0  0
    8.0078    2.2264    0.0000 C   0  0  0  0  0  0  0  0  0  0  0  0
    6.6897    2.9423    0.0000 C   0  0  0  0  0  0  0  0  0  0  0  0
    5.4106    2.1588    0.0000 C   0  0  0  0  0  0  0  0  0  0  0  0
    2.8524    0.5917    0.0000 C   0  0  0  0  0  0  0  0  0  0  0  0
    1.5733   -0.1919    0.0000 C   0  0  0  0  0  0  0  0  0  0  0  0
  1  2  1  0
  2  3  1  0
  4  3  1  6
  4  5  1  0
  5  6  1  0
  6  7  1  0
  7  8  1  0
  8  9  1  0
  9 10  1  0
 10 11  1  0
 11 12  1  0
 12 13  1  0
  6 14  1  0
 14 15  1  0
 15 16  1  0
 16 17  1  0
 17 18  1  0
 18 19  2  0
 19 20  1  0
 20 21  2  0
 21 22  1  0
 22 23  2  0
 23 24  1  0
 24 25  2  0
 25 26  1  0
 26 27  2  0
 21 28  1  0
 28 29  2  0
 16  4  1  0
 29 18  1  0
 13  8  1  0
 27 22  1  0
M  END
>  <Compound_Key>  (1116) 
SYA013-D-ent-7

>  <Ki>  (1116) 
39.0

>  <database>  (1116) 
NewLiterature

>  <Document_ChEMBL_ID>  (1116) 
10.1016/j.bmc.2022.117032

$$$$

     RDKit          2D

 28 31  0  0  0  0  0  0  0  0999 V2000
   -5.1964   -3.8971    0.0000 C   0  0  0  0  0  0  0  0  0  0  0  0
   -4.4464   -2.5981    0.0000 O   0  0  0  0  0  0  0  0  0  0  0  0
   -5.1964   -1.2990    0.0000 C   0  0  0  0  0  0  0  0  0  0  0  0
   -6.6964   -1.2990    0.0000 C   0  0  0  0  0  0  0  0  0  0  0  0
   -7.4464    0.0000    0.0000 C   0  0  0  0  0  0  0  0  0  0  0  0
   -6.6964    1.2990    0.0000 C   0  0  0  0  0  0  0  0  0  0  0  0
   -5.1964    1.2990    0.0000 C   0  0  0  0  0  0  0  0  0  0  0  0
   -4.4464    2.5981    0.0000 O   0  0  0  0  0  0  0  0  0  0  0  0
   -5.1964    3.8971    0.0000 C   0  0  0  0  0  0  0  0  0  0  0  0
   -4.4464    0.0000    0.0000 C   0  0  0  0  0  0  0  0  0  0  0  0
   -2.9464    0.0000    0.0000 C   0  0  0  0  0  0  0  0  0  0  0  0
   -2.1964   -1.2990    0.0000 C   0  0  0  0  0  0  0  0  0  0  0  0
   -0.6964   -1.2990    0.0000 C   0  0  0  0  0  0  0  0  0  0  0  0
    0.0536   -0.0000    0.0000 C   0  0  0  0  0  0  0  0  0  0  0  0
    1.5536   -0.0000    0.0000 N   0  0  0  0  0  0  0  0  0  0  0  0
    2.3036   -1.2990    0.0000 C   0  0  0  0  0  0  0  0  0  0  0  0
    3.8036   -1.2990    0.0000 C   0  0  0  0  0  0  0  0  0  0  0  0
    4.5536   -0.0000    0.0000 N   0  0  0  0  0  0  0  0  0  0  0  0
    6.0536    0.0000    0.0000 C   0  0  0  0  0  0  0  0  0  0  0  0
    6.8036   -1.2990    0.0000 C   0  0  0  0  0  0  0  0  0  0  0  0
    8.3036   -1.2990    0.0000 C   0  0  0  0  0  0  0  0  0  0  0  0
    9.0536    0.0000    0.0000 C   0  0  0  0  0  0  0  0  0  0  0  0
    8.3036    1.2990    0.0000 C   0  0  0  0  0  0  0  0  0  0  0  0
    6.8036    1.2990    0.0000 C   0  0  0  0  0  0  0  0  0  0  0  0
    3.8036    1.2990    0.0000 C   0  0  0  0  0  0  0  0  0  0  0  0
    2.3036    1.2990    0.0000 C   0  0  0  0  0  0  0  0  0  0  0  0
   -0.6964    1.2990    0.0000 C   0  0  0  0  0  0  0  0  0  0  0  0
   -2.1964    1.2990    0.0000 C   0  0  0  0  0  0  0  0  0  0  0  0
  1  2  1  0
  2  3  1  0
  3  4  2  0
  4  5  1  0
  5  6  2  0
  6  7  1  0
  7  8  1  0
  8  9  1  0
  7 10  2  0
 10 11  1  0
 11 12  1  0
 12 13  1  0
 13 14  1  0
 14 15  1  0
 15 16  1  0
 16 17  1  0
 17 18  1  0
 18 19  1  0
 19 20  1  0
 20 21  1  0
 21 22  1  0
 22 23  1  0
 23 24  1  0
 18 25  1  0
 25 26  1  0
 14 27  1  0
 27 28  1  0
 10  3  1  0
 28 11  1  0
 26 15  1  0
 24 19  1  0
M  END
>  <Compound_Key>  (1117) 
SYA013-D-8

>  <Ki>  (1117) 
7.92

>  <database>  (1117) 
NewLiterature

>  <Document_ChEMBL_ID>  (1117) 
10.1016/j.bmc.2022.117032

$$$$

     RDKit          2D

 26 29  0  0  0  0  0  0  0  0999 V2000
   -4.8462   -2.5981    0.0000 F   0  0  0  0  0  0  0  0  0  0  0  0
   -5.5962   -1.2990    0.0000 C   0  0  0  0  0  0  0  0  0  0  0  0
   -7.0962   -1.2990    0.0000 C   0  0  0  0  0  0  0  0  0  0  0  0
   -7.8462    0.0000    0.0000 C   0  0  0  0  0  0  0  0  0  0  0  0
   -7.0962    1.2990    0.0000 C   0  0  0  0  0  0  0  0  0  0  0  0
   -5.5962    1.2990    0.0000 C   0  0  0  0  0  0  0  0  0  0  0  0
   -4.8462    2.5981    0.0000 F   0  0  0  0  0  0  0  0  0  0  0  0
   -4.8462    0.0000    0.0000 C   0  0  0  0  0  0  0  0  0  0  0  0
   -3.3462    0.0000    0.0000 C   0  0  0  0  0  0  0  0  0  0  0  0
   -2.5962   -1.2990    0.0000 C   0  0  0  0  0  0  0  0  0  0  0  0
   -1.0962   -1.2990    0.0000 C   0  0  0  0  0  0  0  0  0  0  0  0
   -0.3462   -0.0000    0.0000 C   0  0  0  0  0  0  0  0  0  0  0  0
    1.1538   -0.0000    0.0000 N   0  0  0  0  0  0  0  0  0  0  0  0
    1.9038   -1.2990    0.0000 C   0  0  0  0  0  0  0  0  0  0  0  0
    3.4038   -1.2990    0.0000 C   0  0  0  0  0  0  0  0  0  0  0  0
    4.1538    0.0000    0.0000 N   0  0  0  0  0  0  0  0  0  0  0  0
    5.6538    0.0000    0.0000 C   0  0  0  0  0  0  0  0  0  0  0  0
    6.4038   -1.2990    0.0000 C   0  0  0  0  0  0  0  0  0  0  0  0
    7.9038   -1.2990    0.0000 C   0  0  0  0  0  0  0  0  0  0  0  0
    8.6538    0.0000    0.0000 C   0  0  0  0  0  0  0  0  0  0  0  0
    7.9038    1.2990    0.0000 C   0  0  0  0  0  0  0  0  0  0  0  0
    6.4038    1.2990    0.0000 C   0  0  0  0  0  0  0  0  0  0  0  0
    3.4038    1.2990    0.0000 C   0  0  0  0  0  0  0  0  0  0  0  0
    1.9038    1.2990    0.0000 C   0  0  0  0  0  0  0  0  0  0  0  0
   -1.0962    1.2990    0.0000 C   0  0  0  0  0  0  0  0  0  0  0  0
   -2.5962    1.2990    0.0000 C   0  0  0  0  0  0  0  0  0  0  0  0
  1  2  1  0
  2  3  2  0
  3  4  1  0
  4  5  2  0
  5  6  1  0
  6  7  1  0
  6  8  2  0
  8  9  1  0
  9 10  1  0
 10 11  1  0
 11 12  1  0
 12 13  1  0
 13 14  1  0
 14 15  1  0
 15 16  1  0
 16 17  1  0
 17 18  1  0
 18 19  1  0
 19 20  1  0
 20 21  1  0
 21 22  1  0
 16 23  1  0
 23 24  1  0
 12 25  1  0
 25 26  1  0
  8  2  1  0
 26  9  1  0
 24 13  1  0
 22 17  1  0
M  END
>  <Compound_Key>  (1118) 
SYA013-D-9

>  <Ki>  (1118) 
14.1

>  <database>  (1118) 
NewLiterature

>  <Document_ChEMBL_ID>  (1118) 
10.1016/j.bmc.2022.117032

$$$$

     RDKit          2D

 24 27  0  0  0  0  0  0  0  0999 V2000
   -6.2250    2.8188    0.0000 C   0  0  0  0  0  0  0  0  0  0  0  0
   -4.7378    2.6237    0.0000 C   0  0  0  0  0  0  0  0  0  0  0  0
   -4.1631    1.2381    0.0000 C   0  0  0  0  0  0  0  0  0  0  0  0
   -5.0757    0.0477    0.0000 C   0  0  0  0  0  0  0  0  0  0  0  0
   -4.5010   -1.3379    0.0000 C   0  0  0  0  0  0  0  0  0  0  0  0
   -3.0137   -1.5329    0.0000 C   0  0  0  0  0  0  0  0  0  0  0  0
   -2.4390   -2.9185    0.0000 C   0  0  0  0  0  0  0  0  0  0  0  0
   -0.9518   -3.1136    0.0000 C   0  0  0  0  0  0  0  0  0  0  0  0
   -0.0392   -1.9231    0.0000 N   0  0  0  0  0  0  0  0  0  0  0  0
    1.4481   -2.1182    0.0000 C   0  0  0  0  0  0  0  0  0  0  0  0
    2.3606   -0.9277    0.0000 C   0  0  0  0  0  0  0  0  0  0  0  0
    1.9339    0.5103    0.0000 C   0  0  0  0  0  0  0  0  0  0  0  0
    3.1697    1.3605    0.0000 S   0  0  0  0  0  0  0  0  0  0  0  0
    4.3602    0.4479    0.0000 C   0  0  0  0  0  0  0  0  0  0  0  0
    5.4487   -0.5841    0.0000 C   0  0  0  0  0  0  0  0  0  0  0  0
    6.8868   -0.1573    0.0000 C   0  0  0  0  0  0  0  0  0  0  0  0
    7.2362    1.3014    0.0000 C   0  0  0  0  0  0  0  0  0  0  0  0
    6.1477    2.3334    0.0000 C   0  0  0  0  0  0  0  0  0  0  0  0
    4.7097    1.9067    0.0000 C   0  0  0  0  0  0  0  0  0  0  0  0
    3.8601   -0.9663    0.0000 S   0  0  0  0  0  0  0  0  0  0  0  0
   -0.6139   -0.5376    0.0000 C   0  0  0  0  0  0  0  0  0  0  0  0
   -2.1011   -0.3425    0.0000 C   0  0  0  0  0  0  0  0  0  0  0  0
   -6.5629    0.2428    0.0000 C   0  0  0  0  0  0  0  0  0  0  0  0
   -7.1376    1.6283    0.0000 C   0  0  0  0  0  0  0  0  0  0  0  0
  1  2  2  0
  2  3  1  0
  3  4  2  0
  4  5  1  0
  5  6  1  0
  6  7  1  0
  7  8  1  0
  8  9  1  0
  9 10  1  0
 10 11  1  0
 11 12  1  0
 12 13  1  0
 13 14  1  0
 14 15  1  0
 15 16  1  0
 16 17  1  0
 17 18  1  0
 18 19  1  0
 14 20  1  0
  9 21  1  0
 21 22  1  0
  4 23  1  0
 23 24  2  0
 24  1  1  0
 22  6  1  0
 20 11  1  0
 19 14  1  0
M  END
>  <Compound_Key>  (1119) 
SYA013-D-10

>  <Ki>  (1119) 
19.5

>  <database>  (1119) 
NewLiterature

>  <Document_ChEMBL_ID>  (1119) 
10.1016/j.bmc.2022.117032

$$$$

     RDKit          2D

 24 27  0  0  0  0  0  0  0  0999 V2000
   -6.2250    2.8188    0.0000 C   0  0  0  0  0  0  0  0  0  0  0  0
   -4.7378    2.6237    0.0000 C   0  0  0  0  0  0  0  0  0  0  0  0
   -4.1631    1.2381    0.0000 C   0  0  0  0  0  0  0  0  0  0  0  0
   -5.0757    0.0477    0.0000 C   0  0  0  0  0  0  0  0  0  0  0  0
   -4.5010   -1.3379    0.0000 C   0  0  0  0  0  0  0  0  0  0  0  0
   -3.0137   -1.5329    0.0000 N   0  0  0  0  0  0  0  0  0  0  0  0
   -2.4390   -2.9185    0.0000 C   0  0  0  0  0  0  0  0  0  0  0  0
   -0.9518   -3.1136    0.0000 C   0  0  0  0  0  0  0  0  0  0  0  0
   -0.0392   -1.9231    0.0000 N   0  0  0  0  0  0  0  0  0  0  0  0
    1.4481   -2.1182    0.0000 C   0  0  0  0  0  0  0  0  0  0  0  0
    2.3606   -0.9277    0.0000 C   0  0  0  0  0  0  0  0  0  0  0  0
    1.9339    0.5103    0.0000 C   0  0  0  0  0  0  0  0  0  0  0  0
    3.1697    1.3605    0.0000 S   0  0  0  0  0  0  0  0  0  0  0  0
    4.3602    0.4479    0.0000 C   0  0  0  0  0  0  0  0  0  0  0  0
    5.4487   -0.5841    0.0000 C   0  0  0  0  0  0  0  0  0  0  0  0
    6.8868   -0.1573    0.0000 C   0  0  0  0  0  0  0  0  0  0  0  0
    7.2362    1.3014    0.0000 C   0  0  0  0  0  0  0  0  0  0  0  0
    6.1477    2.3334    0.0000 C   0  0  0  0  0  0  0  0  0  0  0  0
    4.7097    1.9067    0.0000 C   0  0  0  0  0  0  0  0  0  0  0  0
    3.8601   -0.9663    0.0000 S   0  0  0  0  0  0  0  0  0  0  0  0
   -0.6139   -0.5376    0.0000 C   0  0  0  0  0  0  0  0  0  0  0  0
   -2.1011   -0.3425    0.0000 C   0  0  0  0  0  0  0  0  0  0  0  0
   -6.5629    0.2428    0.0000 C   0  0  0  0  0  0  0  0  0  0  0  0
   -7.1376    1.6283    0.0000 C   0  0  0  0  0  0  0  0  0  0  0  0
  1  2  2  0
  2  3  1  0
  3  4  2  0
  4  5  1  0
  5  6  1  0
  6  7  1  0
  7  8  1  0
  8  9  1  0
  9 10  1  0
 10 11  1  0
 11 12  1  0
 12 13  1  0
 13 14  1  0
 14 15  1  0
 15 16  1  0
 16 17  1  0
 17 18  1  0
 18 19  1  0
 14 20  1  0
  9 21  1  0
 21 22  1  0
  4 23  1  0
 23 24  2  0
 24  1  1  0
 22  6  1  0
 20 11  1  0
 19 14  1  0
M  END
>  <Compound_Key>  (1120) 
SYA013-D-11

>  <Ki>  (1120) 
75.9

>  <database>  (1120) 
NewLiterature

>  <Document_ChEMBL_ID>  (1120) 
10.1016/j.bmc.2022.117032

$$$$

     RDKit          2D

 23 24  0  0  0  0  0  0  0  0999 V2000
   -4.3855    1.7392    0.0000 C   0  0  0  0  0  0  0  0  0  0  0  0
   -3.1229    0.9294    0.0000 C   0  0  0  0  0  0  0  0  0  0  0  0
   -1.7903    1.6179    0.0000 O   0  0  0  0  0  0  0  0  0  0  0  0
   -3.1929   -0.5690    0.0000 N   0  0  0  0  0  0  0  0  0  0  0  0
   -1.9303   -1.3788    0.0000 C   0  0  0  0  0  0  0  0  0  0  0  0
   -0.5977   -0.6903    0.0000 C   0  0  0  0  0  0  0  0  0  0  0  0
   -0.5277    0.8081    0.0000 C   0  0  0  0  0  0  0  0  0  0  0  0
    0.8050    1.4967    0.0000 C   0  0  0  0  0  0  0  0  0  0  0  0
    2.0676    0.6869    0.0000 N   0  0  0  0  0  0  0  0  0  0  0  0
    3.4002    1.3754    0.0000 C   0  0  0  0  0  0  0  0  0  0  0  0
    4.6628    0.5656    0.0000 C   0  0  0  0  0  0  0  0  0  0  0  0
    4.5928   -0.9327    0.0000 C   0  0  0  0  0  0  0  0  0  0  0  0
    5.8555   -1.7425    0.0000 C   0  0  0  0  0  0  0  0  0  0  0  0
    7.1881   -1.0540    0.0000 C   0  0  0  0  0  0  0  0  0  0  0  0
    7.2581    0.4444    0.0000 C   0  0  0  0  0  0  0  0  0  0  0  0
    5.9954    1.2542    0.0000 C   0  0  0  0  0  0  0  0  0  0  0  0
    1.9976   -0.8115    0.0000 C   0  0  0  0  0  0  0  0  0  0  0  0
    0.6650   -1.5001    0.0000 C   0  0  0  0  0  0  0  0  0  0  0  0
   -4.5255   -1.2576    0.0000 C   0  0  0  0  0  0  0  0  0  0  0  0
   -5.7882   -0.4478    0.0000 C   0  0  0  0  0  0  0  0  0  0  0  0
   -6.5980   -1.7104    0.0000 C   0  0  0  0  0  0  0  0  0  0  0  0
   -4.9784    0.8148    0.0000 C   0  0  0  0  0  0  0  0  0  0  0  0
   -7.0508    0.3620    0.0000 C   0  0  0  0  0  0  0  0  0  0  0  0
  1  2  1  0
  2  3  2  0
  2  4  1  0
  4  5  1  0
  5  6  1  0
  6  7  1  0
  7  8  1  0
  8  9  1  0
  9 10  1  0
 10 11  1  0
 11 12  2  0
 12 13  1  0
 13 14  2  0
 14 15  1  0
 15 16  2  0
  9 17  1  0
 17 18  1  0
  4 19  1  0
 19 20  1  0
 20 21  1  0
 20 22  1  0
 20 23  1  0
 18  6  1  0
 16 11  1  0
M  END
>  <Compound_Key>  (1121) 
SYA013-D-12

>  <Ki>  (1121) 
1117.0

>  <database>  (1121) 
NewLiterature

>  <Document_ChEMBL_ID>  (1121) 
10.1016/j.bmc.2022.117032

$$$$

     RDKit          2D

 22 23  0  0  0  0  0  0  0  0999 V2000
   -7.2853   -0.6313    0.0000 C   0  0  0  0  0  0  0  0  0  0  0  0
   -6.0097   -1.4204    0.0000 C   0  0  0  0  0  0  0  0  0  0  0  0
   -4.6885   -0.7102    0.0000 N   0  0  0  0  0  0  0  0  0  0  0  0
   -3.4128   -1.4993    0.0000 C   0  0  0  0  0  0  0  0  0  0  0  0
   -2.0916   -0.7891    0.0000 C   0  0  0  0  0  0  0  0  0  0  0  0
   -2.0460    0.7102    0.0000 C   0  0  0  0  0  0  0  0  0  0  0  0
   -0.7248    1.4204    0.0000 C   0  0  0  0  0  0  0  0  0  0  0  0
    0.5509    0.6313    0.0000 N   0  0  0  0  0  0  0  0  0  0  0  0
    1.8721    1.3415    0.0000 C   0  0  0  0  0  0  0  0  0  0  0  0
    3.1477    0.5524    0.0000 C   0  0  0  0  0  0  0  0  0  0  0  0
    3.1022   -0.9469    0.0000 C   0  0  0  0  0  0  0  0  0  0  0  0
    4.3778   -1.7360    0.0000 C   0  0  0  0  0  0  0  0  0  0  0  0
    5.6990   -1.0258    0.0000 C   0  0  0  0  0  0  0  0  0  0  0  0
    6.9747   -1.8150    0.0000 Cl  0  0  0  0  0  0  0  0  0  0  0  0
    5.7446    0.4735    0.0000 C   0  0  0  0  0  0  0  0  0  0  0  0
    4.4689    1.2626    0.0000 C   0  0  0  0  0  0  0  0  0  0  0  0
    4.5145    2.7619    0.0000 Cl  0  0  0  0  0  0  0  0  0  0  0  0
    0.5053   -0.8680    0.0000 C   0  0  0  0  0  0  0  0  0  0  0  0
   -0.8159   -1.5782    0.0000 C   0  0  0  0  0  0  0  0  0  0  0  0
   -4.6429    0.7891    0.0000 C   0  0  0  0  0  0  0  0  0  0  0  0
   -5.9186    1.5782    0.0000 C   0  0  0  0  0  0  0  0  0  0  0  0
   -3.3217    1.4993    0.0000 O   0  0  0  0  0  0  0  0  0  0  0  0
  1  2  1  0
  2  3  1  0
  3  4  1  0
  4  5  1  0
  5  6  1  0
  6  7  1  0
  7  8  1  0
  8  9  1  0
  9 10  1  0
 10 11  2  0
 11 12  1  0
 12 13  2  0
 13 14  1  0
 13 15  1  0
 15 16  2  0
 16 17  1  0
  8 18  1  0
 18 19  1  0
  3 20  1  0
 20 21  1  0
 20 22  2  0
 19  5  1  0
 16 10  1  0
M  END
>  <Compound_Key>  (1122) 
SYA013-D-13

>  <Ki>  (1122) 
19.6

>  <database>  (1122) 
NewLiterature

>  <Document_ChEMBL_ID>  (1122) 
10.1016/j.bmc.2022.117032

$$$$

     RDKit          2D

 22 24  0  0  0  0  0  0  0  0999 V2000
    7.8370   -0.6398    0.0000 C   0  0  0  0  0  0  0  0  0  0  0  0
    7.0789   -1.9341    0.0000 C   0  0  0  0  0  0  0  0  0  0  0  0
    5.5789   -1.9246    0.0000 C   0  0  0  0  0  0  0  0  0  0  0  0
    4.8371   -0.6209    0.0000 C   0  0  0  0  0  0  0  0  0  0  0  0
    3.3371   -0.6115    0.0000 C   0  0  0  0  0  0  0  0  0  0  0  0
    2.5953    0.6923    0.0000 N   0  0  0  0  0  0  0  0  0  0  0  0
    1.0953    0.7017    0.0000 C   0  0  0  0  0  0  0  0  0  0  0  0
    0.3535    2.0054    0.0000 C   0  0  0  0  0  0  0  0  0  0  0  0
   -1.1464    2.0149    0.0000 C   0  0  0  0  0  0  0  0  0  0  0  0
   -1.8883    3.3186    0.0000 C   0  0  0  0  0  0  0  0  0  0  0  0
   -3.3882    3.3280    0.0000 C   0  0  0  0  0  0  0  0  0  0  0  0
   -4.1464    2.0337    0.0000 O   0  0  0  0  0  0  0  0  0  0  0  0
   -3.4046    0.7300    0.0000 C   0  0  0  0  0  0  0  0  0  0  0  0
   -4.1627   -0.5643    0.0000 C   0  0  0  0  0  0  0  0  0  0  0  0
   -5.6627   -0.5549    0.0000 C   0  0  0  0  0  0  0  0  0  0  0  0
   -6.4208   -1.8492    0.0000 C   0  0  0  0  0  0  0  0  0  0  0  0
   -5.6790   -3.1529    0.0000 C   0  0  0  0  0  0  0  0  0  0  0  0
   -4.1791   -3.1623    0.0000 C   0  0  0  0  0  0  0  0  0  0  0  0
   -3.4209   -1.8680    0.0000 C   0  0  0  0  0  0  0  0  0  0  0  0
   -1.9046    0.7206    0.0000 O   0  0  0  0  0  0  0  0  0  0  0  0
    5.5953    0.6734    0.0000 C   0  0  0  0  0  0  0  0  0  0  0  0
    7.0952    0.6640    0.0000 C   0  0  0  0  0  0  0  0  0  0  0  0
  1  2  2  0
  2  3  1  0
  3  4  2  0
  4  5  1  0
  5  6  1  0
  6  7  1  0
  7  8  1  0
  8  9  1  0
  9 10  1  0
 10 11  1  0
 11 12  1  0
 12 13  1  0
 13 14  1  0
 14 15  2  0
 15 16  1  0
 16 17  2  0
 17 18  1  0
 18 19  2  0
 13 20  1  0
  4 21  1  0
 21 22  2  0
 22  1  1  0
 20  9  1  0
 19 14  1  0
M  END
>  <Compound_Key>  (1123) 
SYA013-D-14

>  <Ki>  (1123) 
92.0

>  <database>  (1123) 
NewLiterature

>  <Document_ChEMBL_ID>  (1123) 
10.1016/j.bmc.2022.117032

$$$$

     RDKit          2D

 22 24  0  0  0  0  0  0  0  0999 V2000
    7.8370   -0.6398    0.0000 C   0  0  0  0  0  0  0  0  0  0  0  0
    7.0789   -1.9341    0.0000 C   0  0  0  0  0  0  0  0  0  0  0  0
    5.5789   -1.9246    0.0000 C   0  0  0  0  0  0  0  0  0  0  0  0
    4.8371   -0.6209    0.0000 C   0  0  0  0  0  0  0  0  0  0  0  0
    3.3371   -0.6115    0.0000 C   0  0  0  0  0  0  0  0  0  0  0  0
    2.5953    0.6923    0.0000 N   0  0  0  0  0  0  0  0  0  0  0  0
    1.0953    0.7017    0.0000 C   0  0  0  0  0  0  0  0  0  0  0  0
    0.3535    2.0054    0.0000 C   0  0  0  0  0  0  0  0  0  0  0  0
   -1.1464    2.0149    0.0000 C   0  0  0  0  0  0  0  0  0  0  0  0
   -1.8883    3.3186    0.0000 C   0  0  0  0  0  0  0  0  0  0  0  0
   -3.3882    3.3280    0.0000 C   0  0  0  0  0  0  0  0  0  0  0  0
   -4.1464    2.0337    0.0000 C   0  0  0  0  0  0  0  0  0  0  0  0
   -3.4046    0.7300    0.0000 C   0  0  0  0  0  0  0  0  0  0  0  0
   -4.1627   -0.5643    0.0000 C   0  0  0  0  0  0  0  0  0  0  0  0
   -5.6627   -0.5549    0.0000 C   0  0  0  0  0  0  0  0  0  0  0  0
   -6.4208   -1.8492    0.0000 C   0  0  0  0  0  0  0  0  0  0  0  0
   -5.6790   -3.1529    0.0000 C   0  0  0  0  0  0  0  0  0  0  0  0
   -4.1791   -3.1623    0.0000 C   0  0  0  0  0  0  0  0  0  0  0  0
   -3.4209   -1.8680    0.0000 C   0  0  0  0  0  0  0  0  0  0  0  0
   -1.9046    0.7206    0.0000 C   0  0  0  0  0  0  0  0  0  0  0  0
    5.5953    0.6734    0.0000 C   0  0  0  0  0  0  0  0  0  0  0  0
    7.0952    0.6640    0.0000 C   0  0  0  0  0  0  0  0  0  0  0  0
  1  2  2  0
  2  3  1  0
  3  4  2  0
  4  5  1  0
  5  6  1  0
  6  7  1  0
  7  8  1  0
  9  8  1  6
  9 10  1  0
 10 11  1  0
 11 12  1  0
 12 13  1  0
 13 14  1  6
 14 15  2  0
 15 16  1  0
 16 17  2  0
 17 18  1  0
 18 19  2  0
 13 20  1  0
  4 21  1  0
 21 22  2  0
 22  1  1  0
 20  9  1  0
 19 14  1  0
M  END
>  <Compound_Key>  (1124) 
SYA013-D-(1R,3S)-15

>  <Ki>  (1124) 
49.0

>  <database>  (1124) 
NewLiterature

>  <Document_ChEMBL_ID>  (1124) 
10.1016/j.bmc.2022.117032

$$$$

     RDKit          2D

 22 24  0  0  0  0  0  0  0  0999 V2000
    7.8370   -0.6398    0.0000 C   0  0  0  0  0  0  0  0  0  0  0  0
    7.0789   -1.9341    0.0000 C   0  0  0  0  0  0  0  0  0  0  0  0
    5.5789   -1.9246    0.0000 C   0  0  0  0  0  0  0  0  0  0  0  0
    4.8371   -0.6209    0.0000 C   0  0  0  0  0  0  0  0  0  0  0  0
    3.3371   -0.6115    0.0000 C   0  0  0  0  0  0  0  0  0  0  0  0
    2.5953    0.6923    0.0000 N   0  0  0  0  0  0  0  0  0  0  0  0
    1.0953    0.7017    0.0000 C   0  0  0  0  0  0  0  0  0  0  0  0
    0.3535    2.0054    0.0000 C   0  0  0  0  0  0  0  0  0  0  0  0
   -1.1464    2.0149    0.0000 C   0  0  0  0  0  0  0  0  0  0  0  0
   -1.8883    3.3186    0.0000 C   0  0  0  0  0  0  0  0  0  0  0  0
   -3.3882    3.3280    0.0000 C   0  0  0  0  0  0  0  0  0  0  0  0
   -4.1464    2.0337    0.0000 C   0  0  0  0  0  0  0  0  0  0  0  0
   -3.4046    0.7300    0.0000 C   0  0  0  0  0  0  0  0  0  0  0  0
   -4.1627   -0.5643    0.0000 C   0  0  0  0  0  0  0  0  0  0  0  0
   -5.6627   -0.5549    0.0000 C   0  0  0  0  0  0  0  0  0  0  0  0
   -6.4208   -1.8492    0.0000 C   0  0  0  0  0  0  0  0  0  0  0  0
   -5.6790   -3.1529    0.0000 C   0  0  0  0  0  0  0  0  0  0  0  0
   -4.1791   -3.1623    0.0000 C   0  0  0  0  0  0  0  0  0  0  0  0
   -3.4209   -1.8680    0.0000 C   0  0  0  0  0  0  0  0  0  0  0  0
   -1.9046    0.7206    0.0000 C   0  0  0  0  0  0  0  0  0  0  0  0
    5.5953    0.6734    0.0000 C   0  0  0  0  0  0  0  0  0  0  0  0
    7.0952    0.6640    0.0000 C   0  0  0  0  0  0  0  0  0  0  0  0
  1  2  2  0
  2  3  1  0
  3  4  2  0
  4  5  1  0
  5  6  1  0
  6  7  1  0
  7  8  1  0
  9  8  1  1
  9 10  1  0
 10 11  1  0
 11 12  1  0
 12 13  1  0
 13 14  1  1
 14 15  2  0
 15 16  1  0
 16 17  2  0
 17 18  1  0
 18 19  2  0
 13 20  1  0
  4 21  1  0
 21 22  2  0
 22  1  1  0
 20  9  1  0
 19 14  1  0
M  END
>  <Compound_Key>  (1125) 
SYA013-D-(1S,3R)-15

>  <Ki>  (1125) 
47.0

>  <database>  (1125) 
NewLiterature

>  <Document_ChEMBL_ID>  (1125) 
10.1016/j.bmc.2022.117032

$$$$

     RDKit          2D

 22 24  0  0  0  0  0  0  0  0999 V2000
    7.8370   -0.6398    0.0000 C   0  0  0  0  0  0  0  0  0  0  0  0
    7.0789   -1.9341    0.0000 C   0  0  0  0  0  0  0  0  0  0  0  0
    5.5789   -1.9246    0.0000 C   0  0  0  0  0  0  0  0  0  0  0  0
    4.8371   -0.6209    0.0000 C   0  0  0  0  0  0  0  0  0  0  0  0
    3.3371   -0.6115    0.0000 C   0  0  0  0  0  0  0  0  0  0  0  0
    2.5953    0.6923    0.0000 N   0  0  0  0  0  0  0  0  0  0  0  0
    1.0953    0.7017    0.0000 C   0  0  0  0  0  0  0  0  0  0  0  0
    0.3535    2.0054    0.0000 C   0  0  0  0  0  0  0  0  0  0  0  0
   -1.1464    2.0149    0.0000 C   0  0  0  0  0  0  0  0  0  0  0  0
   -1.8883    3.3186    0.0000 C   0  0  0  0  0  0  0  0  0  0  0  0
   -3.3882    3.3280    0.0000 C   0  0  0  0  0  0  0  0  0  0  0  0
   -4.1464    2.0337    0.0000 C   0  0  0  0  0  0  0  0  0  0  0  0
   -3.4046    0.7300    0.0000 C   0  0  0  0  0  0  0  0  0  0  0  0
   -4.1627   -0.5643    0.0000 C   0  0  0  0  0  0  0  0  0  0  0  0
   -5.6627   -0.5549    0.0000 C   0  0  0  0  0  0  0  0  0  0  0  0
   -6.4208   -1.8492    0.0000 C   0  0  0  0  0  0  0  0  0  0  0  0
   -5.6790   -3.1529    0.0000 C   0  0  0  0  0  0  0  0  0  0  0  0
   -4.1791   -3.1623    0.0000 C   0  0  0  0  0  0  0  0  0  0  0  0
   -3.4209   -1.8680    0.0000 C   0  0  0  0  0  0  0  0  0  0  0  0
   -1.9046    0.7206    0.0000 O   0  0  0  0  0  0  0  0  0  0  0  0
    5.5953    0.6734    0.0000 C   0  0  0  0  0  0  0  0  0  0  0  0
    7.0952    0.6640    0.0000 C   0  0  0  0  0  0  0  0  0  0  0  0
  1  2  2  0
  2  3  1  0
  3  4  2  0
  4  5  1  0
  5  6  1  0
  6  7  1  0
  7  8  1  0
  9  8  1  6
  9 10  1  0
 10 11  1  0
 11 12  1  0
 12 13  1  0
 13 14  1  6
 14 15  2  0
 15 16  1  0
 16 17  2  0
 17 18  1  0
 18 19  2  0
 13 20  1  0
  4 21  1  0
 21 22  2  0
 22  1  1  0
 20  9  1  0
 19 14  1  0
M  END
>  <Compound_Key>  (1126) 
SYA013-D-(2R,6S)-16

>  <Ki>  (1126) 
426.0

>  <database>  (1126) 
NewLiterature

>  <Document_ChEMBL_ID>  (1126) 
10.1016/j.bmc.2022.117032

$$$$

     RDKit          2D

 22 24  0  0  0  0  0  0  0  0999 V2000
    7.8370   -0.6398    0.0000 C   0  0  0  0  0  0  0  0  0  0  0  0
    7.0789   -1.9341    0.0000 C   0  0  0  0  0  0  0  0  0  0  0  0
    5.5789   -1.9246    0.0000 C   0  0  0  0  0  0  0  0  0  0  0  0
    4.8371   -0.6209    0.0000 C   0  0  0  0  0  0  0  0  0  0  0  0
    3.3371   -0.6115    0.0000 C   0  0  0  0  0  0  0  0  0  0  0  0
    2.5953    0.6923    0.0000 N   0  0  0  0  0  0  0  0  0  0  0  0
    1.0953    0.7017    0.0000 C   0  0  0  0  0  0  0  0  0  0  0  0
    0.3535    2.0054    0.0000 C   0  0  0  0  0  0  0  0  0  0  0  0
   -1.1464    2.0149    0.0000 C   0  0  0  0  0  0  0  0  0  0  0  0
   -1.8883    3.3186    0.0000 C   0  0  0  0  0  0  0  0  0  0  0  0
   -3.3882    3.3280    0.0000 C   0  0  0  0  0  0  0  0  0  0  0  0
   -4.1464    2.0337    0.0000 C   0  0  0  0  0  0  0  0  0  0  0  0
   -3.4046    0.7300    0.0000 C   0  0  0  0  0  0  0  0  0  0  0  0
   -4.1627   -0.5643    0.0000 C   0  0  0  0  0  0  0  0  0  0  0  0
   -5.6627   -0.5549    0.0000 C   0  0  0  0  0  0  0  0  0  0  0  0
   -6.4208   -1.8492    0.0000 C   0  0  0  0  0  0  0  0  0  0  0  0
   -5.6790   -3.1529    0.0000 C   0  0  0  0  0  0  0  0  0  0  0  0
   -4.1791   -3.1623    0.0000 C   0  0  0  0  0  0  0  0  0  0  0  0
   -3.4209   -1.8680    0.0000 C   0  0  0  0  0  0  0  0  0  0  0  0
   -1.9046    0.7206    0.0000 O   0  0  0  0  0  0  0  0  0  0  0  0
    5.5953    0.6734    0.0000 C   0  0  0  0  0  0  0  0  0  0  0  0
    7.0952    0.6640    0.0000 C   0  0  0  0  0  0  0  0  0  0  0  0
  1  2  2  0
  2  3  1  0
  3  4  2  0
  4  5  1  0
  5  6  1  0
  6  7  1  0
  7  8  1  0
  9  8  1  1
  9 10  1  0
 10 11  1  0
 11 12  1  0
 12 13  1  0
 13 14  1  1
 14 15  2  0
 15 16  1  0
 16 17  2  0
 17 18  1  0
 18 19  2  0
 13 20  1  0
  4 21  1  0
 21 22  2  0
 22  1  1  0
 20  9  1  0
 19 14  1  0
M  END
>  <Compound_Key>  (1127) 
SYA013-D-(2S,6R)-16

>  <Ki>  (1127) 
378.0

>  <database>  (1127) 
NewLiterature

>  <Document_ChEMBL_ID>  (1127) 
10.1016/j.bmc.2022.117032

$$$$

     RDKit          2D

 23 25  0  0  0  0  0  0  0  0999 V2000
    8.2076   -1.2608    0.0000 C   0  0  0  0  0  0  0  0  0  0  0  0
    6.9985   -2.1486    0.0000 C   0  0  0  0  0  0  0  0  0  0  0  0
    5.6252   -1.5454    0.0000 C   0  0  0  0  0  0  0  0  0  0  0  0
    5.4609   -0.0544    0.0000 C   0  0  0  0  0  0  0  0  0  0  0  0
    4.0875    0.5488    0.0000 C   0  0  0  0  0  0  0  0  0  0  0  0
    3.9232    2.0398    0.0000 C   0  0  0  0  0  0  0  0  0  0  0  0
    2.5499    2.6430    0.0000 C   0  0  0  0  0  0  0  0  0  0  0  0
    1.3408    1.7552    0.0000 C   0  0  0  0  0  0  0  0  0  0  0  0
    1.5051    0.2643    0.0000 C   0  0  0  0  0  0  0  0  0  0  0  0
    0.2960   -0.6235    0.0000 C   0  0  0  0  0  0  0  0  0  0  0  0
   -1.0774   -0.0203    0.0000 C   0  0  0  0  0  0  0  0  0  0  0  0
   -2.2865   -0.9081    0.0000 N   0  0  0  0  0  0  0  0  0  0  0  0
   -3.6598   -0.3048    0.0000 C   0  0  0  0  0  0  0  0  0  0  0  0
   -4.8689   -1.1926    0.0000 C   0  0  0  0  0  0  0  0  0  0  0  0
   -6.2423   -0.5894    0.0000 C   0  0  0  0  0  0  0  0  0  0  0  0
   -6.4066    0.9016    0.0000 C   0  0  0  0  0  0  0  0  0  0  0  0
   -7.7799    1.5048    0.0000 C   0  0  0  0  0  0  0  0  0  0  0  0
   -8.9890    0.6170    0.0000 C   0  0  0  0  0  0  0  0  0  0  0  0
   -8.8247   -0.8740    0.0000 C   0  0  0  0  0  0  0  0  0  0  0  0
   -7.4513   -1.4772    0.0000 C   0  0  0  0  0  0  0  0  0  0  0  0
    2.8784   -0.3390    0.0000 O   0  0  0  0  0  0  0  0  0  0  0  0
    6.6700    0.8334    0.0000 C   0  0  0  0  0  0  0  0  0  0  0  0
    8.0433    0.2302    0.0000 C   0  0  0  0  0  0  0  0  0  0  0  0
  1  2  2  0
  2  3  1  0
  3  4  2  0
  5  4  1  1
  5  6  1  0
  6  7  1  0
  7  8  1  0
  8  9  1  0
  9 10  1  1
 10 11  1  0
 11 12  1  0
 12 13  1  0
 13 14  1  0
 14 15  1  0
 15 16  1  0
 16 17  1  0
 17 18  1  0
 18 19  1  0
 19 20  1  0
  9 21  1  0
  4 22  1  0
 22 23  2  0
 23  1  1  0
 21  5  1  0
 20 15  1  0
M  END
>  <Compound_Key>  (1128) 
SYA013-D-(2R,6S)-17

>  <Ki>  (1128) 
36.0

>  <database>  (1128) 
NewLiterature

>  <Document_ChEMBL_ID>  (1128) 
10.1016/j.bmc.2022.117032

$$$$

     RDKit          2D

 23 25  0  0  0  0  0  0  0  0999 V2000
    8.2076   -1.2608    0.0000 C   0  0  0  0  0  0  0  0  0  0  0  0
    6.9985   -2.1486    0.0000 C   0  0  0  0  0  0  0  0  0  0  0  0
    5.6252   -1.5454    0.0000 C   0  0  0  0  0  0  0  0  0  0  0  0
    5.4609   -0.0544    0.0000 C   0  0  0  0  0  0  0  0  0  0  0  0
    4.0875    0.5488    0.0000 C   0  0  0  0  0  0  0  0  0  0  0  0
    3.9232    2.0398    0.0000 C   0  0  0  0  0  0  0  0  0  0  0  0
    2.5499    2.6430    0.0000 C   0  0  0  0  0  0  0  0  0  0  0  0
    1.3408    1.7552    0.0000 C   0  0  0  0  0  0  0  0  0  0  0  0
    1.5051    0.2643    0.0000 C   0  0  0  0  0  0  0  0  0  0  0  0
    0.2960   -0.6235    0.0000 C   0  0  0  0  0  0  0  0  0  0  0  0
   -1.0774   -0.0203    0.0000 C   0  0  0  0  0  0  0  0  0  0  0  0
   -2.2865   -0.9081    0.0000 N   0  0  0  0  0  0  0  0  0  0  0  0
   -3.6598   -0.3048    0.0000 C   0  0  0  0  0  0  0  0  0  0  0  0
   -4.8689   -1.1926    0.0000 C   0  0  0  0  0  0  0  0  0  0  0  0
   -6.2423   -0.5894    0.0000 C   0  0  0  0  0  0  0  0  0  0  0  0
   -6.4066    0.9016    0.0000 C   0  0  0  0  0  0  0  0  0  0  0  0
   -7.7799    1.5048    0.0000 C   0  0  0  0  0  0  0  0  0  0  0  0
   -8.9890    0.6170    0.0000 C   0  0  0  0  0  0  0  0  0  0  0  0
   -8.8247   -0.8740    0.0000 C   0  0  0  0  0  0  0  0  0  0  0  0
   -7.4513   -1.4772    0.0000 C   0  0  0  0  0  0  0  0  0  0  0  0
    2.8784   -0.3390    0.0000 O   0  0  0  0  0  0  0  0  0  0  0  0
    6.6700    0.8334    0.0000 C   0  0  0  0  0  0  0  0  0  0  0  0
    8.0433    0.2302    0.0000 C   0  0  0  0  0  0  0  0  0  0  0  0
  1  2  2  0
  2  3  1  0
  3  4  2  0
  5  4  1  6
  5  6  1  0
  6  7  1  0
  7  8  1  0
  8  9  1  0
  9 10  1  6
 10 11  1  0
 11 12  1  0
 12 13  1  0
 13 14  1  0
 14 15  1  0
 15 16  1  0
 16 17  1  0
 17 18  1  0
 18 19  1  0
 19 20  1  0
  9 21  1  0
  4 22  1  0
 22 23  2  0
 23  1  1  0
 21  5  1  0
 20 15  1  0
M  END
>  <Compound_Key>  (1129) 
SYA013-D-(2S,6R)-17

>  <Ki>  (1129) 
57.0

>  <database>  (1129) 
NewLiterature

>  <Document_ChEMBL_ID>  (1129) 
10.1016/j.bmc.2022.117032

$$$$

     RDKit          2D

 22 24  0  0  0  0  0  0  0  0999 V2000
    7.8370   -0.6398    0.0000 C   0  0  0  0  0  0  0  0  0  0  0  0
    7.0789   -1.9341    0.0000 C   0  0  0  0  0  0  0  0  0  0  0  0
    5.5789   -1.9246    0.0000 C   0  0  0  0  0  0  0  0  0  0  0  0
    4.8371   -0.6209    0.0000 C   0  0  0  0  0  0  0  0  0  0  0  0
    3.3371   -0.6115    0.0000 C   0  0  0  0  0  0  0  0  0  0  0  0
    2.5953    0.6923    0.0000 N   0  0  0  0  0  0  0  0  0  0  0  0
    1.0953    0.7017    0.0000 C   0  0  0  0  0  0  0  0  0  0  0  0
    0.3535    2.0054    0.0000 C   0  0  0  0  0  0  0  0  0  0  0  0
   -1.1464    2.0149    0.0000 C   0  0  0  0  0  0  0  0  0  0  0  0
   -1.8883    3.3186    0.0000 C   0  0  0  0  0  0  0  0  0  0  0  0
   -3.3882    3.3280    0.0000 C   0  0  0  0  0  0  0  0  0  0  0  0
   -4.1464    2.0337    0.0000 N   0  0  0  0  0  0  0  0  0  0  0  0
   -3.4046    0.7300    0.0000 C   0  0  0  0  0  0  0  0  0  0  0  0
   -4.1627   -0.5643    0.0000 C   0  0  0  0  0  0  0  0  0  0  0  0
   -5.6627   -0.5549    0.0000 C   0  0  0  0  0  0  0  0  0  0  0  0
   -6.4208   -1.8492    0.0000 C   0  0  0  0  0  0  0  0  0  0  0  0
   -5.6790   -3.1529    0.0000 C   0  0  0  0  0  0  0  0  0  0  0  0
   -4.1791   -3.1623    0.0000 C   0  0  0  0  0  0  0  0  0  0  0  0
   -3.4209   -1.8680    0.0000 C   0  0  0  0  0  0  0  0  0  0  0  0
   -1.9046    0.7206    0.0000 C   0  0  0  0  0  0  0  0  0  0  0  0
    5.5953    0.6734    0.0000 C   0  0  0  0  0  0  0  0  0  0  0  0
    7.0952    0.6640    0.0000 C   0  0  0  0  0  0  0  0  0  0  0  0
  1  2  2  0
  2  3  1  0
  3  4  2  0
  4  5  1  0
  5  6  1  0
  6  7  1  0
  7  8  1  0
  8  9  1  0
  9 10  1  0
 10 11  1  0
 11 12  1  0
 12 13  1  0
 13 14  1  1
 14 15  2  0
 15 16  1  0
 16 17  2  0
 17 18  1  0
 18 19  2  0
 13 20  1  0
  4 21  1  0
 21 22  2  0
 22  1  1  0
 20  9  1  0
 19 14  1  0
M  END
>  <Compound_Key>  (1130) 
SYA013-D-18

>  <Ki>  (1130) 
372.0

>  <database>  (1130) 
NewLiterature

>  <Document_ChEMBL_ID>  (1130) 
10.1016/j.bmc.2022.117032

$$$$

     RDKit          2D

 23 25  0  0  0  0  0  0  0  0999 V2000
   -5.4502    1.8122    0.0000 C   0  0  0  0  0  0  0  0  0  0  0  0
   -3.9505    1.8421    0.0000 N   0  0  0  0  0  0  0  0  0  0  0  0
   -3.2265    3.1558    0.0000 C   0  0  0  0  0  0  0  0  0  0  0  0
   -1.7268    3.1856    0.0000 C   0  0  0  0  0  0  0  0  0  0  0  0
   -0.9511    1.9018    0.0000 C   0  0  0  0  0  0  0  0  0  0  0  0
    0.5486    1.9316    0.0000 C   0  0  0  0  0  0  0  0  0  0  0  0
    1.3243    0.6478    0.0000 C   0  0  0  0  0  0  0  0  0  0  0  0
    2.8240    0.6776    0.0000 N   0  0  0  0  0  0  0  0  0  0  0  0
    3.5997   -0.6062    0.0000 C   0  0  0  0  0  0  0  0  0  0  0  0
    5.0994   -0.5764    0.0000 C   0  0  0  0  0  0  0  0  0  0  0  0
    5.8751   -1.8602    0.0000 C   0  0  0  0  0  0  0  0  0  0  0  0
    7.3748   -1.8304    0.0000 C   0  0  0  0  0  0  0  0  0  0  0  0
    8.0988   -0.5167    0.0000 C   0  0  0  0  0  0  0  0  0  0  0  0
    7.3231    0.7672    0.0000 C   0  0  0  0  0  0  0  0  0  0  0  0
    5.8234    0.7373    0.0000 C   0  0  0  0  0  0  0  0  0  0  0  0
   -1.6751    0.5881    0.0000 C   0  0  0  0  0  0  0  0  0  0  0  0
   -3.1748    0.5582    0.0000 C   0  0  0  0  0  0  0  0  0  0  0  0
   -3.8988   -0.7555    0.0000 C   0  0  0  0  0  0  0  0  0  0  0  0
   -5.3985   -0.7854    0.0000 C   0  0  0  0  0  0  0  0  0  0  0  0
   -6.1225   -2.0991    0.0000 C   0  0  0  0  0  0  0  0  0  0  0  0
   -5.3468   -3.3829    0.0000 C   0  0  0  0  0  0  0  0  0  0  0  0
   -3.8471   -3.3531    0.0000 C   0  0  0  0  0  0  0  0  0  0  0  0
   -3.1231   -2.0394    0.0000 C   0  0  0  0  0  0  0  0  0  0  0  0
  1  2  1  0
  2  3  1  0
  3  4  1  0
  4  5  1  0
  5  6  1  0
  6  7  1  0
  7  8  1  0
  8  9  1  0
  9 10  1  0
 10 11  1  0
 11 12  1  0
 12 13  1  0
 13 14  1  0
 14 15  1  0
  5 16  1  0
 16 17  1  0
 17 18  1  1
 18 19  2  0
 19 20  1  0
 20 21  2  0
 21 22  1  0
 22 23  2  0
 17  2  1  0
 23 18  1  0
 15 10  1  0
M  END
>  <Compound_Key>  (1131) 
SYA013-D-19

>  <Ki>  (1131) 
285.0

>  <database>  (1131) 
NewLiterature

>  <Document_ChEMBL_ID>  (1131) 
10.1016/j.bmc.2022.117032

$$$$

     RDKit          2D

 24 26  0  0  0  0  0  0  0  0999 V2000
   -3.0518    2.1173    0.0000 C   0  0  0  0  0  0  0  0  0  0  0  0
   -2.6005    0.6868    0.0000 N   0  0  0  0  0  0  0  0  0  0  0  0
   -1.1360    0.3625    0.0000 C   0  0  0  0  0  0  0  0  0  0  0  0
   -0.6846   -1.0680    0.0000 C   0  0  0  0  0  0  0  0  0  0  0  0
    0.7799   -1.3924    0.0000 C   0  0  0  0  0  0  0  0  0  0  0  0
    1.2312   -2.8229    0.0000 C   0  0  0  0  0  0  0  0  0  0  0  0
    2.6957   -3.1472    0.0000 C   0  0  0  0  0  0  0  0  0  0  0  0
    3.7089   -2.0411    0.0000 N   0  0  0  0  0  0  0  0  0  0  0  0
    5.1734   -2.3655    0.0000 C   0  0  0  0  0  0  0  0  0  0  0  0
    3.2575   -0.6106    0.0000 C   0  0  0  0  0  0  0  0  0  0  0  0
    4.2707    0.4955    0.0000 C   0  0  0  0  0  0  0  0  0  0  0  0
    5.7352    0.1711    0.0000 C   0  0  0  0  0  0  0  0  0  0  0  0
    6.7484    1.2773    0.0000 C   0  0  0  0  0  0  0  0  0  0  0  0
    6.2970    2.7077    0.0000 C   0  0  0  0  0  0  0  0  0  0  0  0
    4.8325    3.0321    0.0000 C   0  0  0  0  0  0  0  0  0  0  0  0
    3.8194    1.9260    0.0000 C   0  0  0  0  0  0  0  0  0  0  0  0
    1.7930   -0.2863    0.0000 C   0  0  0  0  0  0  0  0  0  0  0  0
   -3.6137   -0.4193    0.0000 C   0  0  0  0  0  0  0  0  0  0  0  0
   -5.0782   -0.0949    0.0000 C   0  0  0  0  0  0  0  0  0  0  0  0
   -5.5295    1.3356    0.0000 C   0  0  0  0  0  0  0  0  0  0  0  0
   -6.9940    1.6599    0.0000 C   0  0  0  0  0  0  0  0  0  0  0  0
   -8.0072    0.5538    0.0000 C   0  0  0  0  0  0  0  0  0  0  0  0
   -7.5558   -0.8767    0.0000 C   0  0  0  0  0  0  0  0  0  0  0  0
   -6.0913   -1.2010    0.0000 C   0  0  0  0  0  0  0  0  0  0  0  0
  1  2  1  0
  2  3  1  0
  3  4  1  0
  4  5  1  0
  5  6  1  0
  6  7  1  0
  7  8  1  0
  8  9  1  0
  8 10  1  0
 10 11  1  1
 11 12  2  0
 12 13  1  0
 13 14  2  0
 14 15  1  0
 15 16  2  0
 10 17  1  0
  2 18  1  0
 18 19  1  0
 19 20  2  0
 20 21  1  0
 21 22  2  0
 22 23  1  0
 23 24  2  0
 17  5  1  0
 24 19  1  0
 16 11  1  0
M  END
>  <Compound_Key>  (1132) 
SYA013-D-20

>  <Ki>  (1132) 
77.0

>  <database>  (1132) 
NewLiterature

>  <Document_ChEMBL_ID>  (1132) 
10.1016/j.bmc.2022.117032

$$$$

     RDKit          2D

 27 30  0  0  0  0  0  0  0  0999 V2000
    6.5021   -2.0056    0.0000 C   0  0  0  0  0  0  0  0  0  0  0  0
    5.0067   -1.8884    0.0000 N   0  0  0  0  0  0  0  0  0  0  0  0
    4.1575   -3.1249    0.0000 C   0  0  0  0  0  0  0  0  0  0  0  0
    2.6621   -3.0077    0.0000 C   0  0  0  0  0  0  0  0  0  0  0  0
    2.0158   -1.6540    0.0000 C   0  0  0  0  0  0  0  0  0  0  0  0
    0.5204   -1.5368    0.0000 C   0  0  0  0  0  0  0  0  0  0  0  0
   -0.1258   -0.1832    0.0000 C   0  0  0  0  0  0  0  0  0  0  0  0
   -1.6212   -0.0660    0.0000 N   0  0  0  0  0  0  0  0  0  0  0  0
   -2.2674    1.2877    0.0000 C   0  0  0  0  0  0  0  0  0  0  0  0
   -3.7629    1.4048    0.0000 C   0  0  0  0  0  0  0  0  0  0  0  0
   -4.6121    0.1684    0.0000 N   0  0  0  0  0  0  0  0  0  0  0  0
   -6.1075    0.2855    0.0000 C   0  0  0  0  0  0  0  0  0  0  0  0
   -6.7537    1.6392    0.0000 C   0  0  0  0  0  0  0  0  0  0  0  0
   -8.2491    1.7564    0.0000 C   0  0  0  0  0  0  0  0  0  0  0  0
   -9.0983    0.5199    0.0000 C   0  0  0  0  0  0  0  0  0  0  0  0
   -8.4521   -0.8338    0.0000 C   0  0  0  0  0  0  0  0  0  0  0  0
   -6.9567   -0.9509    0.0000 C   0  0  0  0  0  0  0  0  0  0  0  0
   -3.9658   -1.1853    0.0000 C   0  0  0  0  0  0  0  0  0  0  0  0
   -2.4704   -1.3025    0.0000 C   0  0  0  0  0  0  0  0  0  0  0  0
    2.8650   -0.4175    0.0000 C   0  0  0  0  0  0  0  0  0  0  0  0
    4.3604   -0.5347    0.0000 C   0  0  0  0  0  0  0  0  0  0  0  0
    5.2096    0.7018    0.0000 C   0  0  0  0  0  0  0  0  0  0  0  0
    6.7050    0.5846    0.0000 C   0  0  0  0  0  0  0  0  0  0  0  0
    7.5542    1.8210    0.0000 C   0  0  0  0  0  0  0  0  0  0  0  0
    6.9080    3.1747    0.0000 C   0  0  0  0  0  0  0  0  0  0  0  0
    5.4126    3.2919    0.0000 C   0  0  0  0  0  0  0  0  0  0  0  0
    4.5634    2.0554    0.0000 C   0  0  0  0  0  0  0  0  0  0  0  0
  1  2  1  0
  2  3  1  0
  3  4  1  0
  4  5  1  0
  5  6  1  0
  6  7  1  0
  7  8  1  0
  8  9  1  0
  9 10  1  0
 10 11  1  0
 11 12  1  0
 12 13  2  0
 13 14  1  0
 14 15  2  0
 15 16  1  0
 16 17  2  0
 11 18  1  0
 18 19  1  0
  5 20  1  0
 20 21  1  0
 21 22  1  1
 22 23  2  0
 23 24  1  0
 24 25  2  0
 25 26  1  0
 26 27  2  0
 21  2  1  0
 27 22  1  0
 19  8  1  0
 17 12  1  0
M  END
>  <Compound_Key>  (1133) 
SYA013-D-21

>  <Ki>  (1133) 
1600.0

>  <database>  (1133) 
NewLiterature

>  <Document_ChEMBL_ID>  (1133) 
10.1016/j.bmc.2022.117032

$$$$

     RDKit          2D

 23 25  0  0  0  0  0  0  0  0999 V2000
   -5.2378    2.5915    0.0000 C   0  0  0  0  0  0  0  0  0  0  0  0
   -4.2914    1.4277    0.0000 C   0  0  0  0  0  0  0  0  0  0  0  0
   -2.8103    1.6654    0.0000 C   0  0  0  0  0  0  0  0  0  0  0  0
   -1.8639    0.5017    0.0000 C   0  0  0  0  0  0  0  0  0  0  0  0
   -0.3829    0.7394    0.0000 N   0  0  0  0  0  0  0  0  0  0  0  0
    0.5635   -0.4244    0.0000 C   0  0  0  0  0  0  0  0  0  0  0  0
    2.0446   -0.1867    0.0000 C   0  0  0  0  0  0  0  0  0  0  0  0
    2.5792    1.2148    0.0000 C   0  0  0  0  0  0  0  0  0  0  0  0
    4.0602    1.4525    0.0000 C   0  0  0  0  0  0  0  0  0  0  0  0
    5.0066    0.2888    0.0000 C   0  0  0  0  0  0  0  0  0  0  0  0
    4.4720   -1.1127    0.0000 C   0  0  0  0  0  0  0  0  0  0  0  0
    5.4184   -2.2765    0.0000 C   0  0  0  0  0  0  0  0  0  0  0  0
    6.8994   -2.0388    0.0000 C   0  0  0  0  0  0  0  0  0  0  0  0
    7.4341   -0.6373    0.0000 C   0  0  0  0  0  0  0  0  0  0  0  0
    6.4877    0.5265    0.0000 C   0  0  0  0  0  0  0  0  0  0  0  0
    1.6328    2.3786    0.0000 C   0  0  0  0  0  0  0  0  0  0  0  0
    0.1518    2.1409    0.0000 C   0  0  0  0  0  0  0  0  0  0  0  0
   -4.8260    0.0262    0.0000 C   0  0  0  0  0  0  0  0  0  0  0  0
   -6.3071   -0.2115    0.0000 C   0  0  0  0  0  0  0  0  0  0  0  0
   -6.8417   -1.6130    0.0000 C   0  0  0  0  0  0  0  0  0  0  0  0
   -5.8953   -2.7767    0.0000 C   0  0  0  0  0  0  0  0  0  0  0  0
   -4.4143   -2.5390    0.0000 C   0  0  0  0  0  0  0  0  0  0  0  0
   -3.8796   -1.1375    0.0000 C   0  0  0  0  0  0  0  0  0  0  0  0
  1  2  1  0
  2  3  1  0
  3  4  1  0
  4  5  1  0
  5  6  1  0
  6  7  1  0
  7  8  1  0
  8  9  1  0
  9 10  1  0
 10 11  2  0
 11 12  1  0
 12 13  2  0
 13 14  1  0
 14 15  2  0
  8 16  1  0
 16 17  1  0
  2 18  1  0
 18 19  2  0
 19 20  1  0
 20 21  2  0
 21 22  1  0
 22 23  2  0
 17  5  1  0
 23 18  1  0
 15 10  1  0
M  END
>  <Compound_Key>  (1134) 
SYA013-D-25

>  <Ki>  (1134) 
6.5

>  <database>  (1134) 
NewLiterature

>  <Document_ChEMBL_ID>  (1134) 
10.1016/j.bmc.2022.117032

$$$$

     RDKit          2D

 27 30  0  0  0  0  0  0  0  0999 V2000
    2.5163    2.7496    0.0000 C   0  0  0  0  0  0  0  0  0  0  0  0
    2.4825    1.2500    0.0000 C   0  0  0  0  0  0  0  0  0  0  0  0
    1.1669    0.5294    0.0000 C   0  0  0  0  0  0  0  0  0  0  0  0
   -0.1149    1.3085    0.0000 C   0  0  0  0  0  0  0  0  0  0  0  0
   -1.4305    0.5879    0.0000 N   0  0  0  0  0  0  0  0  0  0  0  0
   -2.7123    1.3670    0.0000 C   0  0  0  0  0  0  0  0  0  0  0  0
   -4.0279    0.6464    0.0000 C   0  0  0  0  0  0  0  0  0  0  0  0
   -4.0617   -0.8532    0.0000 C   0  0  0  0  0  0  0  0  0  0  0  0
   -5.3773   -1.5738    0.0000 C   0  0  0  0  0  0  0  0  0  0  0  0
   -6.6591   -0.7947    0.0000 C   0  0  0  0  0  0  0  0  0  0  0  0
   -6.6253    0.7049    0.0000 C   0  0  0  0  0  0  0  0  0  0  0  0
   -7.9072    1.4839    0.0000 C   0  0  0  0  0  0  0  0  0  0  0  0
   -9.2228    0.7634    0.0000 C   0  0  0  0  0  0  0  0  0  0  0  0
   -9.2565   -0.7363    0.0000 C   0  0  0  0  0  0  0  0  0  0  0  0
   -7.9747   -1.5153    0.0000 C   0  0  0  0  0  0  0  0  0  0  0  0
   -2.7799   -1.6323    0.0000 C   0  0  0  0  0  0  0  0  0  0  0  0
   -1.4643   -0.9117    0.0000 C   0  0  0  0  0  0  0  0  0  0  0  0
    3.7643    0.4709    0.0000 C   0  0  0  0  0  0  0  0  0  0  0  0
    3.7306   -1.0287    0.0000 C   0  0  0  0  0  0  0  0  0  0  0  0
    5.0124   -1.8077    0.0000 C   0  0  0  0  0  0  0  0  0  0  0  0
    6.3280   -1.0872    0.0000 C   0  0  0  0  0  0  0  0  0  0  0  0
    7.6098   -1.8662    0.0000 C   0  0  0  0  0  0  0  0  0  0  0  0
    8.9254   -1.1456    0.0000 C   0  0  0  0  0  0  0  0  0  0  0  0
    8.9592    0.3540    0.0000 C   0  0  0  0  0  0  0  0  0  0  0  0
    7.6773    1.1330    0.0000 C   0  0  0  0  0  0  0  0  0  0  0  0
    6.3617    0.4125    0.0000 C   0  0  0  0  0  0  0  0  0  0  0  0
    5.0799    1.1915    0.0000 C   0  0  0  0  0  0  0  0  0  0  0  0
  1  2  1  0
  2  3  2  0
  3  4  1  0
  4  5  1  0
  5  6  1  0
  6  7  1  0
  7  8  1  0
  8  9  1  0
  9 10  1  0
 10 11  2  0
 11 12  1  0
 12 13  2  0
 13 14  1  0
 14 15  2  0
  8 16  1  0
 16 17  1  0
  2 18  1  0
 18 19  2  0
 19 20  1  0
 20 21  2  0
 21 22  1  0
 22 23  2  0
 23 24  1  0
 24 25  2  0
 25 26  1  0
 26 27  2  0
 17  5  1  0
 27 18  1  0
 15 10  1  0
 26 21  1  0
M  END
>  <Compound_Key>  (1135) 
RC-106(SYA013-D-25)

>  <Ki>  (1135) 
22.0

>  <database>  (1135) 
NewLiterature

>  <Document_ChEMBL_ID>  (1135) 
10.1016/j.bmc.2022.117032

$$$$

     RDKit          2D

 21 23  0  0  0  0  0  0  0  0999 V2000
   -7.7027   -1.9641    0.0000 Cl  0  0  0  0  0  0  0  0  0  0  0  0
   -6.5885   -0.9598    0.0000 C   0  0  0  0  0  0  0  0  0  0  0  0
   -6.9012    0.5073    0.0000 C   0  0  0  0  0  0  0  0  0  0  0  0
   -5.7871    1.5116    0.0000 C   0  0  0  0  0  0  0  0  0  0  0  0
   -4.3602    1.0489    0.0000 C   0  0  0  0  0  0  0  0  0  0  0  0
   -3.0616    1.7997    0.0000 S   0  0  0  0  0  0  0  0  0  0  0  0
   -1.9463    0.7966    0.0000 C   0  0  0  0  0  0  0  0  0  0  0  0
   -0.4793    1.1093    0.0000 S   0  0  0  0  0  0  0  0  0  0  0  0
    0.5250   -0.0048    0.0000 C   0  0  0  0  0  0  0  0  0  0  0  0
    1.9921    0.3079    0.0000 C   0  0  0  0  0  0  0  0  0  0  0  0
    2.9964   -0.8062    0.0000 C   0  0  0  0  0  0  0  0  0  0  0  0
    4.4635   -0.4935    0.0000 N   0  0  0  0  0  0  0  0  0  0  0  0
    4.8182    0.9639    0.0000 C   0  0  0  0  0  0  0  0  0  0  0  0
    6.1789    1.5953    0.0000 C   0  0  0  0  0  0  0  0  0  0  0  0
    7.5209    0.9251    0.0000 C   0  0  0  0  0  0  0  0  0  0  0  0
    7.8336   -0.5420    0.0000 C   0  0  0  0  0  0  0  0  0  0  0  0
    6.8816   -1.7011    0.0000 C   0  0  0  0  0  0  0  0  0  0  0  0
    5.3817   -1.6796    0.0000 C   0  0  0  0  0  0  0  0  0  0  0  0
   -2.5557   -0.5740    0.0000 N   0  0  0  0  0  0  0  0  0  0  0  0
   -4.0475   -0.4181    0.0000 C   0  0  0  0  0  0  0  0  0  0  0  0
   -5.1617   -1.4225    0.0000 C   0  0  0  0  0  0  0  0  0  0  0  0
  1  2  1  0
  2  3  2  0
  3  4  1  0
  4  5  2  0
  5  6  1  0
  6  7  1  0
  7  8  1  0
  8  9  1  0
  9 10  1  0
 10 11  1  0
 11 12  1  0
 12 13  1  0
 13 14  1  0
 14 15  1  0
 15 16  1  0
 16 17  1  0
 17 18  1  0
  7 19  2  0
 19 20  1  0
 20 21  2  0
 21  2  1  0
 20  5  1  0
 18 12  1  0
M  END
>  <Compound_Key>  (1136) 
SYA013-D-29

>  <Ki>  (1136) 
7.9

>  <database>  (1136) 
NewLiterature

>  <Document_ChEMBL_ID>  (1136) 
10.1016/j.bmc.2022.117032

$$$$

     RDKit          2D

 22 24  0  0  0  0  0  0  0  0999 V2000
    3.2389   -3.9131    0.0000 O   0  0  0  0  0  0  0  0  0  0  0  0
    3.4957   -2.4353    0.0000 C   0  0  0  0  0  0  0  0  0  0  0  0
    4.8422   -1.7743    0.0000 O   0  0  0  0  0  0  0  0  0  0  0  0
    4.6297   -0.2894    0.0000 C   0  0  0  0  0  0  0  0  0  0  0  0
    5.5909    0.8621    0.0000 C   0  0  0  0  0  0  0  0  0  0  0  0
    5.0743    2.2703    0.0000 C   0  0  0  0  0  0  0  0  0  0  0  0
    3.5964    2.5270    0.0000 C   0  0  0  0  0  0  0  0  0  0  0  0
    3.0798    3.9353    0.0000 Cl  0  0  0  0  0  0  0  0  0  0  0  0
    2.6352    1.3755    0.0000 C   0  0  0  0  0  0  0  0  0  0  0  0
    3.1518   -0.0327    0.0000 C   0  0  0  0  0  0  0  0  0  0  0  0
    2.4509   -1.3589    0.0000 N   0  0  0  0  0  0  0  0  0  0  0  0
    0.9661   -1.5714    0.0000 C   0  0  0  0  0  0  0  0  0  0  0  0
    0.0396   -0.3918    0.0000 C   0  0  0  0  0  0  0  0  0  0  0  0
   -1.4453   -0.6043    0.0000 C   0  0  0  0  0  0  0  0  0  0  0  0
   -2.3718    0.5754    0.0000 C   0  0  0  0  0  0  0  0  0  0  0  0
   -3.8566    0.3628    0.0000 N   0  0  0  0  0  0  0  0  0  0  0  0
   -4.3094   -1.0672    0.0000 C   0  0  0  0  0  0  0  0  0  0  0  0
   -5.7098   -1.6048    0.0000 C   0  0  0  0  0  0  0  0  0  0  0  0
   -7.0032   -0.8452    0.0000 C   0  0  0  0  0  0  0  0  0  0  0  0
   -7.2157    0.6397    0.0000 C   0  0  0  0  0  0  0  0  0  0  0  0
   -6.1873    1.7317    0.0000 C   0  0  0  0  0  0  0  0  0  0  0  0
   -4.6924    1.6085    0.0000 C   0  0  0  0  0  0  0  0  0  0  0  0
  1  2  2  0
  2  3  1  0
  3  4  1  0
  4  5  2  0
  5  6  1  0
  6  7  2  0
  7  8  1  0
  7  9  1  0
  9 10  2  0
 10 11  1  0
 11 12  1  0
 12 13  1  0
 13 14  1  0
 14 15  1  0
 15 16  1  0
 16 17  1  0
 17 18  1  0
 18 19  1  0
 19 20  1  0
 20 21  1  0
 21 22  1  0
 11  2  1  0
 22 16  1  0
 10  4  1  0
M  END
>  <Compound_Key>  (1137) 
SYA013-D-30

>  <Ki>  (1137) 
3.8

>  <database>  (1137) 
NewLiterature

>  <Document_ChEMBL_ID>  (1137) 
10.1016/j.bmc.2022.117032

$$$$

     RDKit          2D

 22 24  0  0  0  0  0  0  0  0999 V2000
    3.2389   -3.9131    0.0000 O   0  0  0  0  0  0  0  0  0  0  0  0
    3.4957   -2.4353    0.0000 C   0  0  0  0  0  0  0  0  0  0  0  0
    4.8422   -1.7743    0.0000 S   0  0  0  0  0  0  0  0  0  0  0  0
    4.6297   -0.2894    0.0000 C   0  0  0  0  0  0  0  0  0  0  0  0
    5.5909    0.8621    0.0000 C   0  0  0  0  0  0  0  0  0  0  0  0
    5.0743    2.2703    0.0000 C   0  0  0  0  0  0  0  0  0  0  0  0
    3.5964    2.5270    0.0000 C   0  0  0  0  0  0  0  0  0  0  0  0
    3.0798    3.9353    0.0000 Cl  0  0  0  0  0  0  0  0  0  0  0  0
    2.6352    1.3755    0.0000 C   0  0  0  0  0  0  0  0  0  0  0  0
    3.1518   -0.0327    0.0000 C   0  0  0  0  0  0  0  0  0  0  0  0
    2.4509   -1.3589    0.0000 N   0  0  0  0  0  0  0  0  0  0  0  0
    0.9661   -1.5714    0.0000 C   0  0  0  0  0  0  0  0  0  0  0  0
    0.0396   -0.3918    0.0000 C   0  0  0  0  0  0  0  0  0  0  0  0
   -1.4453   -0.6043    0.0000 C   0  0  0  0  0  0  0  0  0  0  0  0
   -2.3718    0.5754    0.0000 C   0  0  0  0  0  0  0  0  0  0  0  0
   -3.8566    0.3628    0.0000 N   0  0  0  0  0  0  0  0  0  0  0  0
   -4.3094   -1.0672    0.0000 C   0  0  0  0  0  0  0  0  0  0  0  0
   -5.7098   -1.6048    0.0000 C   0  0  0  0  0  0  0  0  0  0  0  0
   -7.0032   -0.8452    0.0000 C   0  0  0  0  0  0  0  0  0  0  0  0
   -7.2157    0.6397    0.0000 C   0  0  0  0  0  0  0  0  0  0  0  0
   -6.1873    1.7317    0.0000 C   0  0  0  0  0  0  0  0  0  0  0  0
   -4.6924    1.6085    0.0000 C   0  0  0  0  0  0  0  0  0  0  0  0
  1  2  2  0
  2  3  1  0
  3  4  1  0
  4  5  2  0
  5  6  1  0
  6  7  2  0
  7  8  1  0
  7  9  1  0
  9 10  2  0
 10 11  1  0
 11 12  1  0
 12 13  1  0
 13 14  1  0
 14 15  1  0
 15 16  1  0
 16 17  1  0
 17 18  1  0
 18 19  1  0
 19 20  1  0
 20 21  1  0
 21 22  1  0
 11  2  1  0
 22 16  1  0
 10  4  1  0
M  END
>  <Compound_Key>  (1138) 
SYA013-D-31

>  <Ki>  (1138) 
7.61

>  <database>  (1138) 
NewLiterature

>  <Document_ChEMBL_ID>  (1138) 
10.1016/j.bmc.2022.117032

$$$$

     RDKit          2D

 29 31  0  0  0  0  0  0  0  0999 V2000
   -5.3541   -2.9845    0.0000 C   0  0  0  0  0  0  0  0  0  0  0  0
   -3.9836   -2.3747    0.0000 O   0  0  0  0  0  0  0  0  0  0  0  0
   -3.8265   -0.8829    0.0000 C   0  0  0  0  0  0  0  0  0  0  0  0
   -5.0399   -0.0010    0.0000 C   0  0  0  0  0  0  0  0  0  0  0  0
   -4.8828    1.4908    0.0000 C   0  0  0  0  0  0  0  0  0  0  0  0
   -3.5123    2.1006    0.0000 C   0  0  0  0  0  0  0  0  0  0  0  0
   -3.3552    3.5923    0.0000 C   0  0  0  0  0  0  0  0  0  0  0  0
   -2.2990    1.2186    0.0000 C   0  0  0  0  0  0  0  0  0  0  0  0
   -2.4561   -0.2731    0.0000 C   0  0  0  0  0  0  0  0  0  0  0  0
   -1.2427   -1.1550    0.0000 N   0  0  0  0  0  0  0  0  0  0  0  0
    0.1277   -0.5452    0.0000 C   0  0  0  0  0  0  0  0  0  0  0  0
    0.2848    0.9465    0.0000 O   0  0  0  0  0  0  0  0  0  0  0  0
    1.3410   -1.4272    0.0000 O   0  0  0  0  0  0  0  0  0  0  0  0
    2.7115   -0.8173    0.0000 C   0  0  0  0  0  0  0  0  0  0  0  0
    3.9248   -1.6993    0.0000 C   0  0  0  0  0  0  0  0  0  0  0  0
    5.2953   -1.0895    0.0000 C   0  0  0  0  0  0  0  0  0  0  0  0
    6.6657   -0.4796    0.0000 C   0  0  0  0  0  0  0  0  0  0  0  0
    6.8228    1.0121    0.0000 C   0  0  0  0  0  0  0  0  0  0  0  0
    5.6095    1.8940    0.0000 C   0  0  0  0  0  0  0  0  0  0  0  0
    4.2390    1.2842    0.0000 C   0  0  0  0  0  0  0  0  0  0  0  0
    2.8686    0.6744    0.0000 C   0  0  0  0  0  0  0  0  0  0  0  0
    4.0819   -0.2075    0.0000 N   0  0  0  0  0  0  0  0  0  0  0  0
    2.7115   -0.8173    0.0000 C   0  0  0  0  0  0  0  0  0  0  0  0
    1.4981    0.0646    0.0000 C   0  0  0  0  0  0  0  0  0  0  0  0
    0.1277   -0.5452    0.0000 C   0  0  0  0  0  0  0  0  0  0  0  0
   -1.0856    0.3367    0.0000 C   0  0  0  0  0  0  0  0  0  0  0  0
   -2.4561   -0.2731    0.0000 C   0  0  0  0  0  0  0  0  0  0  0  0
   -3.6694    0.6088    0.0000 C   0  0  0  0  0  0  0  0  0  0  0  0
   -5.1467    0.3487    0.0000 N   0  0  0  0  0  0  0  0  0  0  0  0
  1  2  1  0
  2  3  1  0
  3  4  2  0
  4  5  1  0
  5  6  2  0
  6  7  1  0
  6  8  1  0
  8  9  2  0
  9 10  1  0
 10 11  1  0
 11 12  2  0
 11 13  1  0
 13 14  1  0
 14 15  1  0
 15 16  1  0
 16 17  1  0
 17 18  1  0
 18 19  1  0
 19 20  1  0
 20 21  1  0
 20 22  1  0
 22 23  1  0
 23 24  1  0
 24 25  1  0
 25 26  1  0
 26 27  1  0
 27 28  1  0
 28 29  1  0
  9  3  1  0
 21 14  1  0
 22 16  1  0
M  END
>  <Ki>  (1139) 
5.19

>  <database>  (1139) 
SRSLDB

$$$$

     RDKit          2D

 49 53  0  0  0  0  0  0  0  0999 V2000
   -2.2082   -4.9355    0.0000 C   0  0  0  0  0  0  0  0  0  0  0  0
   -3.2191   -3.8272    0.0000 O   0  0  0  0  0  0  0  0  0  0  0  0
   -4.6843   -4.1486    0.0000 C   0  0  0  0  0  0  0  0  0  0  0  0
   -5.1386   -5.5781    0.0000 C   0  0  0  0  0  0  0  0  0  0  0  0
   -6.6038   -5.8995    0.0000 C   0  0  0  0  0  0  0  0  0  0  0  0
   -7.6146   -4.7913    0.0000 C   0  0  0  0  0  0  0  0  0  0  0  0
   -9.0798   -5.1126    0.0000 C   0  0  0  0  0  0  0  0  0  0  0  0
   -7.1603   -3.3617    0.0000 C   0  0  0  0  0  0  0  0  0  0  0  0
   -5.6952   -3.0404    0.0000 C   0  0  0  0  0  0  0  0  0  0  0  0
   -5.2409   -1.6108    0.0000 N   0  0  0  0  0  0  0  0  0  0  0  0
   -6.2518   -0.5026    0.0000 C   0  0  0  0  0  0  0  0  0  0  0  0
   -7.7169   -0.8240    0.0000 O   0  0  0  0  0  0  0  0  0  0  0  0
   -5.7975    0.9269    0.0000 O   0  0  0  0  0  0  0  0  0  0  0  0
   -6.8083    2.0351    0.0000 C   0  0  0  0  0  0  0  0  0  0  0  0
   -6.3540    3.4647    0.0000 C   0  0  0  0  0  0  0  0  0  0  0  0
   -7.3649    4.5729    0.0000 C   0  0  0  0  0  0  0  0  0  0  0  0
   -8.3758    5.6811    0.0000 C   0  0  0  0  0  0  0  0  0  0  0  0
   -9.8410    5.3598    0.0000 C   0  0  0  0  0  0  0  0  0  0  0  0
  -10.2953    3.9302    0.0000 C   0  0  0  0  0  0  0  0  0  0  0  0
   -9.2844    2.8220    0.0000 C   0  0  0  0  0  0  0  0  0  0  0  0
   -8.2735    1.7138    0.0000 C   0  0  0  0  0  0  0  0  0  0  0  0
   -7.8192    3.1433    0.0000 N   0  0  0  0  0  0  0  0  0  0  0  0
   -6.8083    2.0351    0.0000 C   0  0  0  0  0  0  0  0  0  0  0  0
   -5.3432    2.3565    0.0000 C   0  0  0  0  0  0  0  0  0  0  0  0
   -4.3323    1.2483    0.0000 C   0  0  0  0  0  0  0  0  0  0  0  0
   -2.8671    1.5696    0.0000 C   0  0  0  0  0  0  0  0  0  0  0  0
   -1.8562    0.4614    0.0000 C   0  0  0  0  0  0  0  0  0  0  0  0
   -0.3911    0.7827    0.0000 C   0  0  0  0  0  0  0  0  0  0  0  0
    0.6198   -0.3255    0.0000 C   0  0  0  0  0  0  0  0  0  0  0  0
    2.0850   -0.0041    0.0000 C   0  0  0  0  0  0  0  0  0  0  0  0
    3.0959   -1.1123    0.0000 C   0  0  0  0  0  0  0  0  0  0  0  0
    4.5611   -0.7910    0.0000 C   0  0  0  0  0  0  0  0  0  0  0  0
    5.5719   -1.8992    0.0000 N   0  0  0  0  0  0  0  0  0  0  0  0
    7.0371   -1.5778    0.0000 S   0  0  0  0  0  0  0  0  0  0  0  0
    7.3585   -3.0430    0.0000 O   0  0  0  0  0  0  0  0  0  0  0  0
    6.7158   -0.1127    0.0000 O   0  0  0  0  0  0  0  0  0  0  0  0
    8.5023   -1.2565    0.0000 C   0  0  0  0  0  0  0  0  0  0  0  0
    9.5132   -2.3647    0.0000 C   0  0  0  0  0  0  0  0  0  0  0  0
   10.9783   -2.0434    0.0000 C   0  0  0  0  0  0  0  0  0  0  0  0
   11.4326   -0.6138    0.0000 C   0  0  0  0  0  0  0  0  0  0  0  0
   10.4218    0.4944    0.0000 C   0  0  0  0  0  0  0  0  0  0  0  0
   10.8761    1.9239    0.0000 C   0  0  0  0  0  0  0  0  0  0  0  0
   12.3412    2.2453    0.0000 N   0  0  0  0  0  0  0  0  0  0  0  0
   12.7955    3.6748    0.0000 C   0  0  0  0  0  0  0  0  0  0  0  0
   13.3521    1.1371    0.0000 C   0  0  0  0  0  0  0  0  0  0  0  0
    9.8652    3.0322    0.0000 C   0  0  0  0  0  0  0  0  0  0  0  0
    8.4000    2.7108    0.0000 C   0  0  0  0  0  0  0  0  0  0  0  0
    7.9457    1.2813    0.0000 C   0  0  0  0  0  0  0  0  0  0  0  0
    8.9566    0.1731    0.0000 C   0  0  0  0  0  0  0  0  0  0  0  0
  1  2  1  0
  2  3  1  0
  3  4  2  0
  4  5  1  0
  5  6  2  0
  6  7  1  0
  6  8  1  0
  8  9  2  0
  9 10  1  0
 10 11  1  0
 11 12  2  0
 11 13  1  0
 13 14  1  0
 14 15  1  0
 15 16  1  0
 16 17  1  0
 17 18  1  0
 18 19  1  0
 19 20  1  0
 20 21  1  0
 20 22  1  0
 22 23  1  0
 23 24  1  0
 24 25  1  0
 25 26  1  0
 26 27  1  0
 27 28  1  0
 28 29  1  0
 29 30  1  0
 30 31  1  0
 31 32  1  0
 32 33  1  0
 33 34  1  0
 34 35  2  0
 34 36  2  0
 34 37  1  0
 37 38  2  0
 38 39  1  0
 39 40  2  0
 40 41  1  0
 41 42  2  0
 42 43  1  0
 43 44  1  0
 43 45  1  0
 42 46  1  0
 46 47  2  0
 47 48  1  0
 48 49  2  0
  9  3  1  0
 21 14  1  0
 49 37  1  0
 22 16  1  0
 49 41  1  0
M  END
>  <Ki>  (1140) 
14.0

>  <database>  (1140) 
SRSLDB

$$$$

     RDKit          2D

 45 49  0  0  0  0  0  0  0  0999 V2000
   -0.4711   -3.7218    0.0000 C   0  0  0  0  0  0  0  0  0  0  0  0
    0.8090   -2.9398    0.0000 O   0  0  0  0  0  0  0  0  0  0  0  0
    0.7717   -1.4403    0.0000 C   0  0  0  0  0  0  0  0  0  0  0  0
   -0.5455   -0.7228    0.0000 C   0  0  0  0  0  0  0  0  0  0  0  0
   -0.5828    0.7768    0.0000 C   0  0  0  0  0  0  0  0  0  0  0  0
    0.6973    1.5588    0.0000 C   0  0  0  0  0  0  0  0  0  0  0  0
    0.6600    3.0583    0.0000 C   0  0  0  0  0  0  0  0  0  0  0  0
    2.0145    0.8413    0.0000 C   0  0  0  0  0  0  0  0  0  0  0  0
    2.0517   -0.6583    0.0000 C   0  0  0  0  0  0  0  0  0  0  0  0
    3.3690   -1.3758    0.0000 N   0  0  0  0  0  0  0  0  0  0  0  0
    4.6490   -0.5938    0.0000 C   0  0  0  0  0  0  0  0  0  0  0  0
    4.6118    0.9057    0.0000 O   0  0  0  0  0  0  0  0  0  0  0  0
    5.9663   -1.3113    0.0000 O   0  0  0  0  0  0  0  0  0  0  0  0
    7.2463   -0.5293    0.0000 C   0  0  0  0  0  0  0  0  0  0  0  0
    8.5635   -1.2468    0.0000 C   0  0  0  0  0  0  0  0  0  0  0  0
    9.8436   -0.4648    0.0000 C   0  0  0  0  0  0  0  0  0  0  0  0
   11.1236    0.3172    0.0000 C   0  0  0  0  0  0  0  0  0  0  0  0
   11.0864    1.8167    0.0000 C   0  0  0  0  0  0  0  0  0  0  0  0
    9.7691    2.5342    0.0000 C   0  0  0  0  0  0  0  0  0  0  0  0
    8.4891    1.7522    0.0000 C   0  0  0  0  0  0  0  0  0  0  0  0
    7.2091    0.9702    0.0000 C   0  0  0  0  0  0  0  0  0  0  0  0
    8.5263    0.2527    0.0000 N   0  0  0  0  0  0  0  0  0  0  0  0
    7.2463   -0.5293    0.0000 C   0  0  0  0  0  0  0  0  0  0  0  0
    5.9290    0.1882    0.0000 C   0  0  0  0  0  0  0  0  0  0  0  0
    4.6490   -0.5938    0.0000 C   0  0  0  0  0  0  0  0  0  0  0  0
    3.3318    0.1237    0.0000 C   0  0  0  0  0  0  0  0  0  0  0  0
    2.0517   -0.6583    0.0000 C   0  0  0  0  0  0  0  0  0  0  0  0
    0.7345    0.0592    0.0000 C   0  0  0  0  0  0  0  0  0  0  0  0
   -0.5455   -0.7228    0.0000 C   0  0  0  0  0  0  0  0  0  0  0  0
   -1.8628   -0.0052    0.0000 C   0  0  0  0  0  0  0  0  0  0  0  0
   -3.1428   -0.7872    0.0000 C   0  0  0  0  0  0  0  0  0  0  0  0
   -4.4601   -0.0697    0.0000 C   0  0  0  0  0  0  0  0  0  0  0  0
   -5.7401   -0.8517    0.0000 N   0  0  0  0  0  0  0  0  0  0  0  0
   -7.0573   -0.1342    0.0000 C   0  0  0  0  0  0  0  0  0  0  0  0
   -7.0946    1.3653    0.0000 C   0  0  0  0  0  0  0  0  0  0  0  0
   -8.4118    2.0829    0.0000 C   0  0  0  0  0  0  0  0  0  0  0  0
   -9.6918    1.3008    0.0000 C   0  0  0  0  0  0  0  0  0  0  0  0
  -11.0091    2.0184    0.0000 N   0  0  0  0  0  4  0  0  0  0  0  0
  -12.2891    1.2364    0.0000 O   0  0  0  0  0  0  0  0  0  0  0  0
  -11.0463    3.5179    0.0000 O   0  0  0  0  0  1  0  0  0  0  0  0
   -9.6546   -0.1987    0.0000 C   0  0  0  0  0  0  0  0  0  0  0  0
  -10.7441   -1.2297    0.0000 N   0  0  0  0  0  0  0  0  0  0  0  0
  -10.1001   -2.5845    0.0000 O   0  0  0  0  0  0  0  0  0  0  0  0
   -8.6127   -2.3907    0.0000 N   0  0  0  0  0  0  0  0  0  0  0  0
   -8.3374   -0.9162    0.0000 C   0  0  0  0  0  0  0  0  0  0  0  0
  1  2  1  0
  2  3  1  0
  3  4  2  0
  4  5  1  0
  5  6  2  0
  6  7  1  0
  6  8  1  0
  8  9  2  0
  9 10  1  0
 10 11  1  0
 11 12  2  0
 11 13  1  0
 13 14  1  0
 14 15  1  0
 15 16  1  0
 16 17  1  0
 17 18  1  0
 18 19  1  0
 19 20  1  0
 20 21  1  0
 20 22  1  0
 22 23  1  0
 23 24  1  0
 24 25  1  0
 25 26  1  0
 26 27  1  0
 27 28  1  0
 28 29  1  0
 29 30  1  0
 30 31  1  0
 31 32  1  0
 32 33  1  0
 33 34  1  0
 34 35  2  0
 35 36  1  0
 36 37  2  0
 37 38  1  0
 38 39  2  0
 38 40  1  0
 37 41  1  0
 41 42  2  0
 42 43  1  0
 43 44  1  0
 44 45  2  0
  9  3  1  0
 21 14  1  0
 45 34  1  0
 22 16  1  0
 45 41  1  0
M  CHG  2  38   1  40  -1
M  END
>  <Ki>  (1141) 
11.0

>  <database>  (1141) 
SRSLDB

>  <Document_ChEMBL_ID>  (1141) 
10.1021/acs.jmedchem.0c02265

$$$$

     RDKit          2D

 33 35  0  0  0  0  0  0  0  0999 V2000
   -4.2621   -3.1947    0.0000 C   0  0  0  0  0  0  0  0  0  0  0  0
   -2.9114   -2.5425    0.0000 O   0  0  0  0  0  0  0  0  0  0  0  0
   -2.8009   -1.0465    0.0000 C   0  0  0  0  0  0  0  0  0  0  0  0
   -4.0411   -0.2029    0.0000 C   0  0  0  0  0  0  0  0  0  0  0  0
   -3.9306    1.2930    0.0000 C   0  0  0  0  0  0  0  0  0  0  0  0
   -2.5799    1.9453    0.0000 C   0  0  0  0  0  0  0  0  0  0  0  0
   -2.4694    3.4412    0.0000 C   0  0  0  0  0  0  0  0  0  0  0  0
   -1.3396    1.1017    0.0000 C   0  0  0  0  0  0  0  0  0  0  0  0
   -1.4501   -0.3943    0.0000 C   0  0  0  0  0  0  0  0  0  0  0  0
   -0.2098   -1.2379    0.0000 N   0  0  0  0  0  0  0  0  0  0  0  0
    1.1409   -0.5856    0.0000 C   0  0  0  0  0  0  0  0  0  0  0  0
    1.2514    0.9103    0.0000 O   0  0  0  0  0  0  0  0  0  0  0  0
    2.3812   -1.4293    0.0000 O   0  0  0  0  0  0  0  0  0  0  0  0
    3.7319   -0.7770    0.0000 C   0  0  0  0  0  0  0  0  0  0  0  0
    4.9722   -1.6206    0.0000 C   0  0  0  0  0  0  0  0  0  0  0  0
    6.3229   -0.9684    0.0000 C   0  0  0  0  0  0  0  0  0  0  0  0
    7.6737   -0.3161    0.0000 C   0  0  0  0  0  0  0  0  0  0  0  0
    7.7842    1.1798    0.0000 C   0  0  0  0  0  0  0  0  0  0  0  0
    6.5439    2.0235    0.0000 C   0  0  0  0  0  0  0  0  0  0  0  0
    5.1932    1.3712    0.0000 C   0  0  0  0  0  0  0  0  0  0  0  0
    3.8424    0.7189    0.0000 C   0  0  0  0  0  0  0  0  0  0  0  0
    5.0827   -0.1247    0.0000 N   0  0  0  0  0  0  0  0  0  0  0  0
    3.7319   -0.7770    0.0000 C   0  0  0  0  0  0  0  0  0  0  0  0
    2.4917    0.0666    0.0000 C   0  0  0  0  0  0  0  0  0  0  0  0
    1.1409   -0.5856    0.0000 C   0  0  0  0  0  0  0  0  0  0  0  0
   -0.0994    0.2580    0.0000 C   0  0  0  0  0  0  0  0  0  0  0  0
   -1.4501   -0.3943    0.0000 C   0  0  0  0  0  0  0  0  0  0  0  0
   -2.6904    0.4494    0.0000 C   0  0  0  0  0  0  0  0  0  0  0  0
   -4.0411   -0.2029    0.0000 C   0  0  0  0  0  0  0  0  0  0  0  0
   -5.2814    0.6408    0.0000 C   0  0  0  0  0  0  0  0  0  0  0  0
   -6.6321   -0.0115    0.0000 C   0  0  0  0  0  0  0  0  0  0  0  0
   -7.8724    0.8321    0.0000 C   0  0  0  0  0  0  0  0  0  0  0  0
   -9.2232    0.1799    0.0000 N   0  0  0  0  0  0  0  0  0  0  0  0
  1  2  1  0
  2  3  1  0
  3  4  2  0
  4  5  1  0
  5  6  2  0
  6  7  1  0
  6  8  1  0
  8  9  2  0
  9 10  1  0
 10 11  1  0
 11 12  2  0
 11 13  1  0
 13 14  1  0
 14 15  1  0
 15 16  1  0
 16 17  1  0
 17 18  1  0
 18 19  1  0
 19 20  1  0
 20 21  1  0
 20 22  1  0
 22 23  1  0
 23 24  1  0
 24 25  1  0
 25 26  1  0
 26 27  1  0
 27 28  1  0
 28 29  1  0
 29 30  1  0
 30 31  1  0
 31 32  1  0
 32 33  1  0
  9  3  1  0
 21 14  1  0
 22 16  1  0
M  END
>  <Compound_Key>  (1142) 
SW43

>  <Ki>  (1142) 
7.07

>  <database>  (1142) 
SRSLDB

>  <Document_ChEMBL_ID>  (1142) 
10.1021/acs.jmedchem.0c02265

$$$$

     RDKit          2D

 29 32  0  0  0  0  0  0  0  0999 V2000
   -5.8148   -3.1030    0.0000 C   0  0  0  0  0  0  0  0  0  0  0  0
   -4.4382   -2.5071    0.0000 O   0  0  0  0  0  0  0  0  0  0  0  0
   -4.2660   -1.0170    0.0000 C   0  0  0  0  0  0  0  0  0  0  0  0
   -5.4704   -0.1229    0.0000 C   0  0  0  0  0  0  0  0  0  0  0  0
   -5.2982    1.3672    0.0000 C   0  0  0  0  0  0  0  0  0  0  0  0
   -3.9217    1.9631    0.0000 C   0  0  0  0  0  0  0  0  0  0  0  0
   -3.7495    3.4532    0.0000 C   0  0  0  0  0  0  0  0  0  0  0  0
   -2.7173    1.0690    0.0000 C   0  0  0  0  0  0  0  0  0  0  0  0
   -2.8895   -0.4211    0.0000 C   0  0  0  0  0  0  0  0  0  0  0  0
   -1.6851   -1.3153    0.0000 N   0  0  0  0  0  0  0  0  0  0  0  0
   -0.3086   -0.7193    0.0000 C   0  0  0  0  0  0  0  0  0  0  0  0
   -0.1364    0.7708    0.0000 O   0  0  0  0  0  0  0  0  0  0  0  0
    0.8958   -1.6135    0.0000 O   0  0  0  0  0  0  0  0  0  0  0  0
    2.2723   -1.0176    0.0000 C   0  0  0  0  0  0  0  0  0  0  0  0
    3.4767   -1.9117    0.0000 C   0  0  0  0  0  0  0  0  0  0  0  0
    4.8532   -1.3158    0.0000 C   0  0  0  0  0  0  0  0  0  0  0  0
    6.2298   -0.7199    0.0000 C   0  0  0  0  0  0  0  0  0  0  0  0
    6.4019    0.7702    0.0000 C   0  0  0  0  0  0  0  0  0  0  0  0
    5.1976    1.6644    0.0000 C   0  0  0  0  0  0  0  0  0  0  0  0
    3.8210    1.0685    0.0000 C   0  0  0  0  0  0  0  0  0  0  0  0
    2.4445    0.4725    0.0000 C   0  0  0  0  0  0  0  0  0  0  0  0
    3.6489   -0.4216    0.0000 N   0  0  0  0  0  0  0  0  0  0  0  0
    2.2723   -1.0176    0.0000 C   0  0  0  0  0  0  0  0  0  0  0  0
    1.0680   -0.1234    0.0000 C   0  0  0  0  0  0  0  0  0  0  0  0
    1.2401    1.3667    0.0000 C   0  0  0  0  0  0  0  0  0  0  0  0
    0.0358    2.2608    0.0000 C   0  0  0  0  0  0  0  0  0  0  0  0
   -1.3408    1.6649    0.0000 C   0  0  0  0  0  0  0  0  0  0  0  0
   -1.5129    0.1748    0.0000 C   0  0  0  0  0  0  0  0  0  0  0  0
   -0.3086   -0.7193    0.0000 C   0  0  0  0  0  0  0  0  0  0  0  0
  1  2  1  0
  2  3  1  0
  3  4  2  0
  4  5  1  0
  5  6  2  0
  6  7  1  0
  6  8  1  0
  8  9  2  0
  9 10  1  0
 10 11  1  0
 11 12  2  0
 11 13  1  0
 13 14  1  0
 14 15  1  0
 15 16  1  0
 16 17  1  0
 17 18  1  0
 18 19  1  0
 19 20  1  0
 20 21  1  0
 20 22  1  0
 22 23  1  0
 23 24  1  0
 24 25  2  0
 25 26  1  0
 26 27  2  0
 27 28  1  0
 28 29  2  0
  9  3  1  0
 21 14  1  0
 29 24  1  0
 22 16  1  0
M  END
>  <ChemBL_ID>  (1143) 
CHEMBL481425

>  <Ki>  (1143) 
3.1

>  <database>  (1143) 
SRSLDB

$$$$

     RDKit          2D

 32 35  0  0  0  0  0  0  0  0999 V2000
   -5.2700   -3.7821    0.0000 C   0  0  0  0  0  0  0  0  0  0  0  0
   -3.9413   -3.0859    0.0000 O   0  0  0  0  0  0  0  0  0  0  0  0
   -3.8798   -1.5872    0.0000 C   0  0  0  0  0  0  0  0  0  0  0  0
   -5.1470   -0.7846    0.0000 C   0  0  0  0  0  0  0  0  0  0  0  0
   -5.0855    0.7142    0.0000 C   0  0  0  0  0  0  0  0  0  0  0  0
   -3.7568    1.4103    0.0000 C   0  0  0  0  0  0  0  0  0  0  0  0
   -3.6953    2.9090    0.0000 C   0  0  0  0  0  0  0  0  0  0  0  0
   -2.4896    0.6077    0.0000 C   0  0  0  0  0  0  0  0  0  0  0  0
   -2.5511   -0.8911    0.0000 C   0  0  0  0  0  0  0  0  0  0  0  0
   -1.2839   -1.6937    0.0000 N   0  0  0  0  0  0  0  0  0  0  0  0
    0.0448   -0.9976    0.0000 C   0  0  0  0  0  0  0  0  0  0  0  0
    0.1063    0.5012    0.0000 O   0  0  0  0  0  0  0  0  0  0  0  0
    1.3120   -1.8002    0.0000 O   0  0  0  0  0  0  0  0  0  0  0  0
    2.6407   -1.1041    0.0000 C   0  0  0  0  0  0  0  0  0  0  0  0
    3.9079   -1.9067    0.0000 C   0  0  0  0  0  0  0  0  0  0  0  0
    5.2366   -1.2106    0.0000 C   0  0  0  0  0  0  0  0  0  0  0  0
    6.5653   -0.5144    0.0000 C   0  0  0  0  0  0  0  0  0  0  0  0
    6.6268    0.9843    0.0000 C   0  0  0  0  0  0  0  0  0  0  0  0
    5.3596    1.7869    0.0000 C   0  0  0  0  0  0  0  0  0  0  0  0
    4.0309    1.0908    0.0000 C   0  0  0  0  0  0  0  0  0  0  0  0
    2.7022    0.3947    0.0000 C   0  0  0  0  0  0  0  0  0  0  0  0
    3.9694   -0.4079    0.0000 N   0  0  0  0  0  0  0  0  0  0  0  0
    2.6407   -1.1041    0.0000 C   0  0  0  0  0  0  0  0  0  0  0  0
    1.3735   -0.3014    0.0000 C   0  0  0  0  0  0  0  0  0  0  0  0
    1.4350    1.1973    0.0000 C   0  0  0  0  0  0  0  0  0  0  0  0
    0.1678    1.9999    0.0000 C   0  0  0  0  0  0  0  0  0  0  0  0
   -1.1609    1.3038    0.0000 C   0  0  0  0  0  0  0  0  0  0  0  0
   -2.4281    2.1064    0.0000 N   0  0  0  0  0  0  0  0  0  0  0  0
   -2.3666    3.6051    0.0000 C   0  0  0  0  0  0  0  0  0  0  0  0
   -3.8858    1.7525    0.0000 C   0  0  0  0  0  0  0  0  0  0  0  0
   -1.2224   -0.1950    0.0000 C   0  0  0  0  0  0  0  0  0  0  0  0
    0.0448   -0.9976    0.0000 C   0  0  0  0  0  0  0  0  0  0  0  0
  1  2  1  0
  2  3  1  0
  3  4  2  0
  4  5  1  0
  5  6  2  0
  6  7  1  0
  6  8  1  0
  8  9  2  0
  9 10  1  0
 10 11  1  0
 11 12  2  0
 11 13  1  0
 13 14  1  0
 14 15  1  0
 15 16  1  0
 16 17  1  0
 17 18  1  0
 18 19  1  0
 19 20  1  0
 20 21  1  0
 20 22  1  0
 22 23  1  0
 23 24  1  0
 24 25  2  0
 25 26  1  0
 26 27  2  0
 27 28  1  0
 28 29  1  0
 28 30  1  0
 27 31  1  0
 31 32  2  0
  9  3  1  0
 21 14  1  0
 32 24  1  0
 22 16  1  0
M  END
>  <ChemBL_ID>  (1144) 
CHEMBL481418

>  <Compound_Key>  (1144) 
WC-26(4)

>  <Ki>  (1144) 
2.58

>  <database>  (1144) 
SRSLDB

$$$$

     RDKit          2D

 32 35  0  0  0  0  0  0  0  0999 V2000
   -5.1536   -4.0291    0.0000 C   0  0  0  0  0  0  0  0  0  0  0  0
   -3.8475   -3.2916    0.0000 O   0  0  0  0  0  0  0  0  0  0  0  0
   -3.8332   -1.7916    0.0000 C   0  0  0  0  0  0  0  0  0  0  0  0
   -5.1250   -1.0293    0.0000 C   0  0  0  0  0  0  0  0  0  0  0  0
   -5.1107    0.4707    0.0000 C   0  0  0  0  0  0  0  0  0  0  0  0
   -3.8046    1.2082    0.0000 C   0  0  0  0  0  0  0  0  0  0  0  0
   -3.7903    2.7082    0.0000 C   0  0  0  0  0  0  0  0  0  0  0  0
   -2.5127    0.4459    0.0000 C   0  0  0  0  0  0  0  0  0  0  0  0
   -2.5271   -1.0541    0.0000 C   0  0  0  0  0  0  0  0  0  0  0  0
   -1.2352   -1.8164    0.0000 N   0  0  0  0  0  0  0  0  0  0  0  0
    0.0709   -1.0789    0.0000 C   0  0  0  0  0  0  0  0  0  0  0  0
    0.0852    0.4211    0.0000 O   0  0  0  0  0  0  0  0  0  0  0  0
    1.3627   -1.8412    0.0000 O   0  0  0  0  0  0  0  0  0  0  0  0
    2.6689   -1.1036    0.0000 C   0  0  0  0  0  0  0  0  0  0  0  0
    3.9607   -1.8660    0.0000 C   0  0  0  0  0  0  0  0  0  0  0  0
    5.2668   -1.1284    0.0000 C   0  0  0  0  0  0  0  0  0  0  0  0
    6.5729   -0.3909    0.0000 C   0  0  0  0  0  0  0  0  0  0  0  0
    6.5873    1.1091    0.0000 C   0  0  0  0  0  0  0  0  0  0  0  0
    5.2954    1.8714    0.0000 C   0  0  0  0  0  0  0  0  0  0  0  0
    3.9893    1.1339    0.0000 C   0  0  0  0  0  0  0  0  0  0  0  0
    2.6832    0.3963    0.0000 C   0  0  0  0  0  0  0  0  0  0  0  0
    3.9750   -0.3661    0.0000 N   0  0  0  0  0  0  0  0  0  0  0  0
    2.6689   -1.1036    0.0000 C   0  0  0  0  0  0  0  0  0  0  0  0
    1.3770   -0.3413    0.0000 C   0  0  0  0  0  0  0  0  0  0  0  0
    1.3913    1.1587    0.0000 C   0  0  0  0  0  0  0  0  0  0  0  0
    0.0995    1.9210    0.0000 C   0  0  0  0  0  0  0  0  0  0  0  0
   -1.2066    1.1834    0.0000 C   0  0  0  0  0  0  0  0  0  0  0  0
   -2.4984    1.9458    0.0000 C   0  0  0  0  0  0  0  0  0  0  0  0
   -2.4841    3.4457    0.0000 C   0  0  0  0  0  0  0  0  0  0  0  0
   -3.7759    4.2081    0.0000 F   0  0  0  0  0  0  0  0  0  0  0  0
   -1.2209   -0.3165    0.0000 C   0  0  0  0  0  0  0  0  0  0  0  0
    0.0709   -1.0789    0.0000 C   0  0  0  0  0  0  0  0  0  0  0  0
  1  2  1  0
  2  3  1  0
  3  4  2  0
  4  5  1  0
  5  6  2  0
  6  7  1  0
  6  8  1  0
  8  9  2  0
  9 10  1  0
 10 11  1  0
 11 12  2  0
 11 13  1  0
 13 14  1  0
 14 15  1  0
 15 16  1  0
 16 17  1  0
 17 18  1  0
 18 19  1  0
 19 20  1  0
 20 21  1  0
 20 22  1  0
 22 23  1  0
 23 24  1  0
 24 25  2  0
 25 26  1  0
 26 27  2  0
 27 28  1  0
 28 29  1  0
 29 30  1  0
 27 31  1  0
 31 32  2  0
  9  3  1  0
 21 14  1  0
 32 24  1  0
 22 16  1  0
M  END
>  <ChemBL_ID>  (1145) 
CHEMBL479648

>  <Compound_Key>  (1145) 
WC-59(5)

>  <Ki>  (1145) 
0.82

>  <database>  (1145) 
SRSLDB

$$$$

     RDKit          2D

 26 29  0  0  0  0  0  0  0  0999 V2000
    9.0911   -1.1123    0.0000 O   0  0  0  0  0  0  0  0  0  0  0  0
    7.6368   -0.7448    0.0000 C   0  0  0  0  0  0  0  0  0  0  0  0
    6.5914   -1.8205    0.0000 C   0  0  0  0  0  0  0  0  0  0  0  0
    5.1371   -1.4529    0.0000 C   0  0  0  0  0  0  0  0  0  0  0  0
    4.7283   -0.0097    0.0000 C   0  0  0  0  0  0  0  0  0  0  0  0
    3.2740    0.3578    0.0000 C   0  0  0  0  0  0  0  0  0  0  0  0
    2.2286   -0.7178    0.0000 C   0  0  0  0  0  0  0  0  0  0  0  0
    0.7743   -0.3503    0.0000 C   0  0  0  0  0  0  0  0  0  0  0  0
   -0.2711   -1.4260    0.0000 C   0  0  0  0  0  0  0  0  0  0  0  0
   -1.7254   -1.0584    0.0000 N   0  0  0  0  0  0  0  0  0  0  0  0
   -2.1342    0.3848    0.0000 C   0  0  0  0  0  0  0  0  0  0  0  0
   -3.5885    0.7523    0.0000 C   0  0  0  0  0  0  0  0  0  0  0  0
   -4.6339   -0.3233    0.0000 N   0  0  0  0  0  0  0  0  0  0  0  0
   -6.0882    0.0442    0.0000 C   0  0  0  0  0  0  0  0  0  0  0  0
   -6.4971    1.4874    0.0000 C   0  0  0  0  0  0  0  0  0  0  0  0
   -7.9513    1.8549    0.0000 C   0  0  0  0  0  0  0  0  0  0  0  0
   -8.9968    0.7793    0.0000 C   0  0  0  0  0  0  0  0  0  0  0  0
   -8.5879   -0.6639    0.0000 C   0  0  0  0  0  0  0  0  0  0  0  0
   -7.1337   -1.0315    0.0000 C   0  0  0  0  0  0  0  0  0  0  0  0
   -4.2251   -1.7666    0.0000 C   0  0  0  0  0  0  0  0  0  0  0  0
   -2.7708   -2.1341    0.0000 C   0  0  0  0  0  0  0  0  0  0  0  0
    2.8652    1.8010    0.0000 C   0  0  0  0  0  0  0  0  0  0  0  0
    3.9106    2.8767    0.0000 C   0  0  0  0  0  0  0  0  0  0  0  0
    5.3649    2.5092    0.0000 C   0  0  0  0  0  0  0  0  0  0  0  0
    5.7737    1.0660    0.0000 C   0  0  0  0  0  0  0  0  0  0  0  0
    7.2280    0.6984    0.0000 C   0  0  0  0  0  0  0  0  0  0  0  0
  1  2  1  0
  2  3  2  0
  3  4  1  0
  4  5  2  0
  5  6  1  0
  6  7  1  0
  7  8  1  0
  8  9  1  0
  9 10  1  0
 10 11  1  0
 11 12  1  0
 12 13  1  0
 13 14  1  0
 14 15  1  0
 15 16  1  0
 16 17  1  0
 17 18  1  0
 18 19  1  0
 13 20  1  0
 20 21  1  0
  6 22  2  0
 22 23  1  0
 23 24  2  0
 24 25  1  0
 25 26  2  0
 26  2  1  0
 25  5  1  0
 21 10  1  0
 19 14  1  0
M  END
>  <Compound_Key>  (1146) 
14

>  <Ki>  (1146) 
9.02

>  <database>  (1146) 
NewLiterature

>  <Document_ChEMBL_ID>  (1146) 
10.1038/s41598-023-39677-w

$$$$

     RDKit          2D

 27 29  0  0  0  0  0  0  0  0999 V2000
   -3.6061   -3.2772    0.0000 C   0  0  0  0  0  0  0  0  0  0  0  0
   -3.8226   -1.7929    0.0000 O   0  0  0  0  0  0  0  0  0  0  0  0
   -5.2164   -1.2383    0.0000 C   0  0  0  0  0  0  0  0  0  0  0  0
   -6.3935   -2.1680    0.0000 C   0  0  0  0  0  0  0  0  0  0  0  0
   -7.7872   -1.6135    0.0000 C   0  0  0  0  0  0  0  0  0  0  0  0
   -8.0038   -0.1292    0.0000 C   0  0  0  0  0  0  0  0  0  0  0  0
   -9.3975    0.4254    0.0000 C   0  0  0  0  0  0  0  0  0  0  0  0
   -6.8266    0.8005    0.0000 C   0  0  0  0  0  0  0  0  0  0  0  0
   -5.4329    0.2459    0.0000 C   0  0  0  0  0  0  0  0  0  0  0  0
   -4.2558    1.1756    0.0000 C   0  0  0  0  0  0  0  0  0  0  0  0
   -4.4724    2.6599    0.0000 O   0  0  0  0  0  0  0  0  0  0  0  0
   -2.8621    0.6211    0.0000 N   0  0  0  0  0  0  0  0  0  0  0  0
   -1.6849    1.5508    0.0000 C   0  0  0  0  0  0  0  0  0  0  0  0
   -0.2912    0.9962    0.0000 C   0  0  0  0  0  0  0  0  0  0  0  0
    0.8859    1.9259    0.0000 C   0  0  0  0  0  0  0  0  0  0  0  0
    2.2796    1.3713    0.0000 N   0  0  0  0  0  0  0  0  0  0  0  0
    2.4962   -0.1130    0.0000 C   0  0  0  0  0  0  0  0  0  0  0  0
    3.8899   -0.6676    0.0000 C   0  0  0  0  0  0  0  0  0  0  0  0
    5.0671    0.2621    0.0000 N   0  0  0  0  0  0  0  0  0  0  0  0
    6.4608   -0.2925    0.0000 C   0  0  0  0  0  0  0  0  0  0  0  0
    6.6773   -1.7767    0.0000 C   0  0  0  0  0  0  0  0  0  0  0  0
    8.0711   -2.3313    0.0000 C   0  0  0  0  0  0  0  0  0  0  0  0
    9.2482   -1.4016    0.0000 C   0  0  0  0  0  0  0  0  0  0  0  0
    9.0316    0.0827    0.0000 C   0  0  0  0  0  0  0  0  0  0  0  0
    7.6379    0.6372    0.0000 C   0  0  0  0  0  0  0  0  0  0  0  0
    4.8505    1.7464    0.0000 C   0  0  0  0  0  0  0  0  0  0  0  0
    3.4568    2.3010    0.0000 C   0  0  0  0  0  0  0  0  0  0  0  0
  1  2  1  0
  2  3  1  0
  3  4  2  0
  4  5  1  0
  5  6  2  0
  6  7  1  0
  6  8  1  0
  8  9  2  0
  9 10  1  0
 10 11  2  0
 10 12  1  0
 12 13  1  0
 13 14  1  0
 14 15  1  0
 15 16  1  0
 16 17  1  0
 17 18  1  0
 18 19  1  0
 19 20  1  0
 20 21  1  0
 21 22  1  0
 22 23  1  0
 23 24  1  0
 24 25  1  0
 19 26  1  0
 26 27  1  0
  9  3  1  0
 27 16  1  0
 25 20  1  0
M  END
>  <ChemBL_ID>  (1147) 
CHEMBL1851993

>  <Ki>  (1147) 
26.1

>  <database>  (1147) 
SRSLDB

$$$$

     RDKit          2D

 26 29  0  0  0  0  0  0  0  0999 V2000
    9.0911   -1.1123    0.0000 C   0  0  0  0  0  0  0  0  0  0  0  0
    7.6368   -0.7448    0.0000 C   0  0  0  0  0  0  0  0  0  0  0  0
    6.5914   -1.8205    0.0000 C   0  0  0  0  0  0  0  0  0  0  0  0
    5.1371   -1.4529    0.0000 C   0  0  0  0  0  0  0  0  0  0  0  0
    4.7283   -0.0097    0.0000 C   0  0  0  0  0  0  0  0  0  0  0  0
    5.7737    1.0660    0.0000 C   0  0  0  0  0  0  0  0  0  0  0  0
    7.2280    0.6984    0.0000 C   0  0  0  0  0  0  0  0  0  0  0  0
    5.3649    2.5092    0.0000 C   0  0  0  0  0  0  0  0  0  0  0  0
    3.9106    2.8767    0.0000 C   0  0  0  0  0  0  0  0  0  0  0  0
    2.8652    1.8010    0.0000 C   0  0  0  0  0  0  0  0  0  0  0  0
    3.2740    0.3578    0.0000 C   0  0  0  0  0  0  0  0  0  0  0  0
    2.2286   -0.7178    0.0000 C   0  0  0  0  0  0  0  0  0  0  0  0
    0.7743   -0.3503    0.0000 C   0  0  0  0  0  0  0  0  0  0  0  0
   -0.2711   -1.4260    0.0000 C   0  0  0  0  0  0  0  0  0  0  0  0
   -1.7254   -1.0584    0.0000 N   0  0  0  0  0  0  0  0  0  0  0  0
   -2.1342    0.3848    0.0000 C   0  0  0  0  0  0  0  0  0  0  0  0
   -3.5885    0.7523    0.0000 C   0  0  0  0  0  0  0  0  0  0  0  0
   -4.6339   -0.3233    0.0000 N   0  0  0  0  0  0  0  0  0  0  0  0
   -6.0882    0.0442    0.0000 C   0  0  0  0  0  0  0  0  0  0  0  0
   -6.4971    1.4874    0.0000 C   0  0  0  0  0  0  0  0  0  0  0  0
   -7.9513    1.8549    0.0000 C   0  0  0  0  0  0  0  0  0  0  0  0
   -8.9968    0.7793    0.0000 C   0  0  0  0  0  0  0  0  0  0  0  0
   -8.5879   -0.6639    0.0000 C   0  0  0  0  0  0  0  0  0  0  0  0
   -7.1337   -1.0315    0.0000 C   0  0  0  0  0  0  0  0  0  0  0  0
   -4.2251   -1.7666    0.0000 C   0  0  0  0  0  0  0  0  0  0  0  0
   -2.7708   -2.1341    0.0000 C   0  0  0  0  0  0  0  0  0  0  0  0
  1  2  1  0
  2  3  2  0
  3  4  1  0
  4  5  2  0
  5  6  1  0
  6  7  2  0
  6  8  1  0
  8  9  1  0
  9 10  1  0
 10 11  1  0
 11 12  1  0
 12 13  1  0
 13 14  1  0
 14 15  1  0
 15 16  1  0
 16 17  1  0
 17 18  1  0
 18 19  1  0
 19 20  1  0
 20 21  1  0
 21 22  1  0
 22 23  1  0
 23 24  1  0
 18 25  1  0
 25 26  1  0
  7  2  1  0
 26 15  1  0
 11  5  1  0
 24 19  1  0
M  END
>  <Compound_Key>  (1148) 
16

>  <Ki>  (1148) 
1.12

>  <database>  (1148) 
NewLiterature

>  <Document_ChEMBL_ID>  (1148) 
10.1038/s41598-023-39679-w

$$$$

     RDKit          2D

 26 29  0  0  0  0  0  0  0  0999 V2000
   -7.1371   -3.0523    0.0000 C   0  0  0  0  0  0  0  0  0  0  0  0
   -6.7022   -1.6167    0.0000 C   0  0  0  0  0  0  0  0  0  0  0  0
   -7.7280   -0.5223    0.0000 C   0  0  0  0  0  0  0  0  0  0  0  0
   -7.2931    0.9133    0.0000 C   0  0  0  0  0  0  0  0  0  0  0  0
   -5.8324    1.2544    0.0000 C   0  0  0  0  0  0  0  0  0  0  0  0
   -5.3975    2.6900    0.0000 C   0  0  0  0  0  0  0  0  0  0  0  0
   -3.9368    3.0312    0.0000 C   0  0  0  0  0  0  0  0  0  0  0  0
   -2.9110    1.9368    0.0000 C   0  0  0  0  0  0  0  0  0  0  0  0
   -3.3459    0.5012    0.0000 C   0  0  0  0  0  0  0  0  0  0  0  0
   -2.3201   -0.5932    0.0000 C   0  0  0  0  0  0  0  0  0  0  0  0
   -0.8594   -0.2520    0.0000 C   0  0  0  0  0  0  0  0  0  0  0  0
    0.1664   -1.3464    0.0000 C   0  0  0  0  0  0  0  0  0  0  0  0
    1.6271   -1.0053    0.0000 N   0  0  0  0  0  0  0  0  0  0  0  0
    2.6529   -2.0997    0.0000 C   0  0  0  0  0  0  0  0  0  0  0  0
    4.1135   -1.7585    0.0000 C   0  0  0  0  0  0  0  0  0  0  0  0
    4.5484   -0.3230    0.0000 N   0  0  0  0  0  0  0  0  0  0  0  0
    6.0091    0.0182    0.0000 C   0  0  0  0  0  0  0  0  0  0  0  0
    7.0349   -1.0762    0.0000 C   0  0  0  0  0  0  0  0  0  0  0  0
    8.4956   -0.7350    0.0000 C   0  0  0  0  0  0  0  0  0  0  0  0
    8.9305    0.7005    0.0000 C   0  0  0  0  0  0  0  0  0  0  0  0
    7.9047    1.7950    0.0000 C   0  0  0  0  0  0  0  0  0  0  0  0
    6.4440    1.4538    0.0000 C   0  0  0  0  0  0  0  0  0  0  0  0
    3.5226    0.7715    0.0000 C   0  0  0  0  0  0  0  0  0  0  0  0
    2.0619    0.4303    0.0000 C   0  0  0  0  0  0  0  0  0  0  0  0
   -4.8066    0.1600    0.0000 C   0  0  0  0  0  0  0  0  0  0  0  0
   -5.2415   -1.2755    0.0000 C   0  0  0  0  0  0  0  0  0  0  0  0
  1  2  1  0
  2  3  2  0
  3  4  1  0
  4  5  2  0
  5  6  1  0
  6  7  2  0
  7  8  1  0
  8  9  2  0
  9 10  1  0
 10 11  1  0
 11 12  1  0
 12 13  1  0
 13 14  1  0
 14 15  1  0
 15 16  1  0
 16 17  1  0
 17 18  1  0
 18 19  1  0
 19 20  1  0
 20 21  1  0
 21 22  1  0
 16 23  1  0
 23 24  1  0
  9 25  1  0
 25 26  2  0
 26  2  1  0
 25  5  1  0
 24 13  1  0
 22 17  1  0
M  END
>  <Compound_Key>  (1149) 
18

>  <Ki>  (1149) 
11.8

>  <database>  (1149) 
NewLiterature

>  <Document_ChEMBL_ID>  (1149) 
10.1038/s41598-023-39681-w

$$$$

     RDKit          2D

 29 31  0  0  0  0  0  0  0  0999 V2000
   -8.3488    4.0529    0.0000 C   0  0  0  0  0  0  0  0  0  0  0  0
   -8.6572    2.5850    0.0000 O   0  0  0  0  0  0  0  0  0  0  0  0
   -7.5401    1.5839    0.0000 C   0  0  0  0  0  0  0  0  0  0  0  0
   -6.1146    2.0509    0.0000 C   0  0  0  0  0  0  0  0  0  0  0  0
   -4.9975    1.0498    0.0000 C   0  0  0  0  0  0  0  0  0  0  0  0
   -5.3059   -0.4181    0.0000 C   0  0  0  0  0  0  0  0  0  0  0  0
   -4.1888   -1.4192    0.0000 C   0  0  0  0  0  0  0  0  0  0  0  0
   -4.4971   -2.8871    0.0000 O   0  0  0  0  0  0  0  0  0  0  0  0
   -2.7633   -0.9523    0.0000 C   0  0  0  0  0  0  0  0  0  0  0  0
   -1.6462   -1.9533    0.0000 C   0  0  0  0  0  0  0  0  0  0  0  0
   -0.2207   -1.4864    0.0000 C   0  0  0  0  0  0  0  0  0  0  0  0
    0.8964   -2.4874    0.0000 C   0  0  0  0  0  0  0  0  0  0  0  0
    2.3219   -2.0205    0.0000 N   0  0  0  0  0  0  0  0  0  0  0  0
    3.4390   -3.0215    0.0000 C   0  0  0  0  0  0  0  0  0  0  0  0
    4.8645   -2.5546    0.0000 C   0  0  0  0  0  0  0  0  0  0  0  0
    5.1728   -1.0867    0.0000 C   0  0  0  0  0  0  0  0  0  0  0  0
    6.5983   -0.6197    0.0000 C   0  0  0  0  0  0  0  0  0  0  0  0
    6.9067    0.8482    0.0000 C   0  0  0  0  0  0  0  0  0  0  0  0
    8.3322    1.3152    0.0000 O   0  0  0  0  0  0  0  0  0  0  0  0
    9.4493    0.3141    0.0000 C   0  0  0  0  0  0  0  0  0  0  0  0
    5.7896    1.8493    0.0000 C   0  0  0  0  0  0  0  0  0  0  0  0
    6.0980    3.3172    0.0000 O   0  0  0  0  0  0  0  0  0  0  0  0
    4.9809    4.3183    0.0000 C   0  0  0  0  0  0  0  0  0  0  0  0
    4.3641    1.3823    0.0000 C   0  0  0  0  0  0  0  0  0  0  0  0
    4.0557   -0.0856    0.0000 C   0  0  0  0  0  0  0  0  0  0  0  0
    2.6303   -0.5525    0.0000 C   0  0  0  0  0  0  0  0  0  0  0  0
   -6.7313   -0.8851    0.0000 C   0  0  0  0  0  0  0  0  0  0  0  0
   -7.0397   -2.3530    0.0000 C   0  0  0  0  0  0  0  0  0  0  0  0
   -7.8484    0.1160    0.0000 C   0  0  0  0  0  0  0  0  0  0  0  0
  1  2  1  0
  2  3  1  0
  3  4  2  0
  4  5  1  0
  5  6  2  0
  6  7  1  0
  7  8  1  0
  7  9  1  0
  9 10  1  0
 10 11  1  0
 11 12  1  0
 12 13  1  0
 13 14  1  0
 14 15  1  0
 15 16  1  0
 16 17  2  0
 17 18  1  0
 18 19  1  0
 19 20  1  0
 18 21  2  0
 21 22  1  0
 22 23  1  0
 21 24  1  0
 24 25  2  0
 25 26  1  0
  6 27  1  0
 27 28  1  0
 27 29  2  0
 29  3  1  0
 26 13  1  0
 25 16  1  0
M  END
>  <Compound_Key>  (1150) 
33b

>  <Ki>  (1150) 
5.2

>  <database>  (1150) 
NewLiterature

>  <Document_ChEMBL_ID>  (1150) 
10.1016/j.bioorg.2021.105163

$$$$

     RDKit          2D

 29 31  0  0  0  0  0  0  0  0999 V2000
   -8.3488    4.0529    0.0000 C   0  0  0  0  0  0  0  0  0  0  0  0
   -8.6572    2.5850    0.0000 O   0  0  0  0  0  0  0  0  0  0  0  0
   -7.5401    1.5839    0.0000 C   0  0  0  0  0  0  0  0  0  0  0  0
   -6.1146    2.0509    0.0000 C   0  0  0  0  0  0  0  0  0  0  0  0
   -4.9975    1.0498    0.0000 C   0  0  0  0  0  0  0  0  0  0  0  0
   -5.3059   -0.4181    0.0000 C   0  0  0  0  0  0  0  0  0  0  0  0
   -4.1888   -1.4192    0.0000 C   0  0  0  0  0  0  0  0  0  0  0  0
   -4.4971   -2.8871    0.0000 O   0  0  0  0  0  0  0  0  0  0  0  0
   -2.7633   -0.9523    0.0000 C   0  0  0  0  0  0  0  0  0  0  0  0
   -1.6462   -1.9533    0.0000 C   0  0  0  0  0  0  0  0  0  0  0  0
   -0.2207   -1.4864    0.0000 C   0  0  0  0  0  0  0  0  0  0  0  0
    0.8964   -2.4874    0.0000 C   0  0  0  0  0  0  0  0  0  0  0  0
    2.3219   -2.0205    0.0000 N   0  0  0  0  0  0  0  0  0  0  0  0
    3.4390   -3.0215    0.0000 C   0  0  0  0  0  0  0  0  0  0  0  0
    4.8645   -2.5546    0.0000 C   0  0  0  0  0  0  0  0  0  0  0  0
    5.1728   -1.0867    0.0000 C   0  0  0  0  0  0  0  0  0  0  0  0
    6.5983   -0.6197    0.0000 C   0  0  0  0  0  0  0  0  0  0  0  0
    6.9067    0.8482    0.0000 C   0  0  0  0  0  0  0  0  0  0  0  0
    8.3322    1.3152    0.0000 O   0  0  0  0  0  0  0  0  0  0  0  0
    9.4493    0.3141    0.0000 C   0  0  0  0  0  0  0  0  0  0  0  0
    5.7896    1.8493    0.0000 C   0  0  0  0  0  0  0  0  0  0  0  0
    6.0980    3.3172    0.0000 O   0  0  0  0  0  0  0  0  0  0  0  0
    4.9809    4.3183    0.0000 C   0  0  0  0  0  0  0  0  0  0  0  0
    4.3641    1.3823    0.0000 C   0  0  0  0  0  0  0  0  0  0  0  0
    4.0557   -0.0856    0.0000 C   0  0  0  0  0  0  0  0  0  0  0  0
    2.6303   -0.5525    0.0000 C   0  0  0  0  0  0  0  0  0  0  0  0
   -6.7313   -0.8851    0.0000 C   0  0  0  0  0  0  0  0  0  0  0  0
   -7.0397   -2.3530    0.0000 C   0  0  0  0  0  0  0  0  0  0  0  0
   -7.8484    0.1160    0.0000 C   0  0  0  0  0  0  0  0  0  0  0  0
  1  2  1  0
  2  3  1  0
  3  4  2  0
  4  5  1  0
  5  6  2  0
  6  7  1  0
  7  8  2  0
  7  9  1  0
  9 10  1  0
 10 11  1  0
 11 12  1  0
 12 13  1  0
 13 14  1  0
 14 15  1  0
 15 16  1  0
 16 17  2  0
 17 18  1  0
 18 19  1  0
 19 20  1  0
 18 21  2  0
 21 22  1  0
 22 23  1  0
 21 24  1  0
 24 25  2  0
 25 26  1  0
  6 27  1  0
 27 28  1  0
 27 29  2  0
 29  3  1  0
 26 13  1  0
 25 16  1  0
M  END
>  <Compound_Key>  (1151) 
32b

>  <Ki>  (1151) 
5.1

>  <database>  (1151) 
NewLiterature

>  <Document_ChEMBL_ID>  (1151) 
10.1016/j.bioorg.2021.105163

$$$$

     RDKit          2D

 22 24  0  0  0  0  0  0  0  0999 V2000
   -7.6471   -0.3953    0.0000 C   0  0  0  0  0  0  0  0  0  0  0  0
   -6.2483   -0.9368    0.0000 O   0  0  0  0  0  0  0  0  0  0  0  0
   -5.0799    0.0038    0.0000 C   0  0  0  0  0  0  0  0  0  0  0  0
   -5.3103    1.4860    0.0000 C   0  0  0  0  0  0  0  0  0  0  0  0
   -4.1419    2.4267    0.0000 C   0  0  0  0  0  0  0  0  0  0  0  0
   -2.7431    1.8851    0.0000 C   0  0  0  0  0  0  0  0  0  0  0  0
   -2.5126    0.4029    0.0000 C   0  0  0  0  0  0  0  0  0  0  0  0
   -3.6811   -0.5377    0.0000 C   0  0  0  0  0  0  0  0  0  0  0  0
   -3.4506   -2.0199    0.0000 C   0  0  0  0  0  0  0  0  0  0  0  0
   -2.0518   -2.5615    0.0000 C   0  0  0  0  0  0  0  0  0  0  0  0
   -0.8834   -1.6208    0.0000 C   0  0  0  0  0  0  0  0  0  0  0  0
   -1.1138   -0.1386    0.0000 C   0  0  0  0  0  0  0  0  0  0  0  0
    0.0546    0.8020    0.0000 C   0  0  0  0  0  0  0  0  0  0  0  0
    1.4534    0.2604    0.0000 C   0  0  0  0  0  0  0  0  0  0  0  0
    2.6218    1.2011    0.0000 C   0  0  0  0  0  0  0  0  0  0  0  0
    4.0207    0.6595    0.0000 N   0  0  0  0  0  0  0  0  0  0  0  0
    4.2511   -0.8227    0.0000 C   0  0  0  0  0  0  0  0  0  0  0  0
    5.6499   -1.3642    0.0000 C   0  0  0  0  0  0  0  0  0  0  0  0
    6.8183   -0.4236    0.0000 N   0  0  0  0  0  0  0  0  0  0  0  0
    8.2171   -0.9651    0.0000 C   0  0  0  0  0  0  0  0  0  0  0  0
    6.5879    1.0586    0.0000 C   0  0  0  0  0  0  0  0  0  0  0  0
    5.1891    1.6002    0.0000 C   0  0  0  0  0  0  0  0  0  0  0  0
  1  2  1  0
  2  3  1  0
  3  4  2  0
  4  5  1  0
  5  6  2  0
  6  7  1  0
  7  8  2  0
  8  9  1  0
  9 10  1  0
 10 11  1  0
 11 12  1  0
 12 13  1  0
 13 14  1  0
 14 15  1  0
 15 16  1  0
 16 17  1  0
 17 18  1  0
 18 19  1  0
 19 20  1  0
 19 21  1  0
 21 22  1  0
  8  3  1  0
 22 16  1  0
 12  7  1  0
M  END
>  <Compound_Key>  (1152) 
23

>  <Ki>  (1152) 
663.0

>  <database>  (1152) 
NewLiterature

>  <Document_ChEMBL_ID>  (1152) 
10.1038/s41598-023-39686-w

$$$$

     RDKit          2D

 24 26  0  0  0  0  0  0  0  0999 V2000
   -9.9486   -0.4485    0.0000 C   0  0  0  0  0  0  0  0  0  0  0  0
   -8.5448    0.0800    0.0000 C   0  0  0  0  0  0  0  0  0  0  0  0
   -7.3852   -0.8715    0.0000 C   0  0  0  0  0  0  0  0  0  0  0  0
   -5.9814   -0.3431    0.0000 N   0  0  0  0  0  0  0  0  0  0  0  0
   -5.7371    1.1369    0.0000 C   0  0  0  0  0  0  0  0  0  0  0  0
   -4.3333    1.6654    0.0000 C   0  0  0  0  0  0  0  0  0  0  0  0
   -3.1737    0.7138    0.0000 N   0  0  0  0  0  0  0  0  0  0  0  0
   -1.7699    1.2423    0.0000 C   0  0  0  0  0  0  0  0  0  0  0  0
   -0.6103    0.2908    0.0000 C   0  0  0  0  0  0  0  0  0  0  0  0
    0.7935    0.8192    0.0000 C   0  0  0  0  0  0  0  0  0  0  0  0
    1.9531   -0.1323    0.0000 C   0  0  0  0  0  0  0  0  0  0  0  0
    1.7088   -1.6123    0.0000 C   0  0  0  0  0  0  0  0  0  0  0  0
    2.8684   -2.5638    0.0000 C   0  0  0  0  0  0  0  0  0  0  0  0
    4.2722   -2.0354    0.0000 C   0  0  0  0  0  0  0  0  0  0  0  0
    4.5165   -0.5554    0.0000 C   0  0  0  0  0  0  0  0  0  0  0  0
    5.9203   -0.0269    0.0000 C   0  0  0  0  0  0  0  0  0  0  0  0
    7.0799   -0.9784    0.0000 O   0  0  0  0  0  0  0  0  0  0  0  0
    8.4837   -0.4500    0.0000 C   0  0  0  0  0  0  0  0  0  0  0  0
    6.1646    1.4531    0.0000 C   0  0  0  0  0  0  0  0  0  0  0  0
    5.0050    2.4046    0.0000 C   0  0  0  0  0  0  0  0  0  0  0  0
    3.6012    1.8761    0.0000 C   0  0  0  0  0  0  0  0  0  0  0  0
    3.3569    0.3962    0.0000 C   0  0  0  0  0  0  0  0  0  0  0  0
   -3.4180   -0.7661    0.0000 C   0  0  0  0  0  0  0  0  0  0  0  0
   -4.8218   -1.2946    0.0000 C   0  0  0  0  0  0  0  0  0  0  0  0
  1  2  1  0
  2  3  1  0
  3  4  1  0
  4  5  1  0
  5  6  1  0
  6  7  1  0
  7  8  1  0
  8  9  1  0
  9 10  1  0
 10 11  1  0
 11 12  1  0
 12 13  1  0
 13 14  1  0
 14 15  1  0
 15 16  2  0
 16 17  1  0
 17 18  1  0
 16 19  1  0
 19 20  2  0
 20 21  1  0
 21 22  2  0
  7 23  1  0
 23 24  1  0
 24  4  1  0
 22 11  1  0
 22 15  1  0
M  END
>  <Compound_Key>  (1153) 
24

>  <Ki>  (1153) 
42.5

>  <database>  (1153) 
NewLiterature

>  <Document_ChEMBL_ID>  (1153) 
10.1038/s41598-023-39687-w

$$$$

     RDKit          2D

 26 28  0  0  0  0  0  0  0  0999 V2000
   -9.3074    0.2609    0.0000 C   0  0  0  0  0  0  0  0  0  0  0  0
   -7.8768    0.7120    0.0000 C   0  0  0  0  0  0  0  0  0  0  0  0
   -6.7709   -0.3014    0.0000 C   0  0  0  0  0  0  0  0  0  0  0  0
   -7.0955   -1.7658    0.0000 C   0  0  0  0  0  0  0  0  0  0  0  0
   -8.5261   -2.2169    0.0000 C   0  0  0  0  0  0  0  0  0  0  0  0
   -5.3403    0.1497    0.0000 N   0  0  0  0  0  0  0  0  0  0  0  0
   -5.0157    1.6141    0.0000 C   0  0  0  0  0  0  0  0  0  0  0  0
   -3.5851    2.0652    0.0000 C   0  0  0  0  0  0  0  0  0  0  0  0
   -2.4791    1.0519    0.0000 N   0  0  0  0  0  0  0  0  0  0  0  0
   -1.0486    1.5029    0.0000 C   0  0  0  0  0  0  0  0  0  0  0  0
    0.0574    0.4896    0.0000 C   0  0  0  0  0  0  0  0  0  0  0  0
    1.4879    0.9407    0.0000 C   0  0  0  0  0  0  0  0  0  0  0  0
    2.5939   -0.0727    0.0000 C   0  0  0  0  0  0  0  0  0  0  0  0
    2.2692   -1.5372    0.0000 C   0  0  0  0  0  0  0  0  0  0  0  0
    3.3752   -2.5505    0.0000 C   0  0  0  0  0  0  0  0  0  0  0  0
    4.8057   -2.0994    0.0000 C   0  0  0  0  0  0  0  0  0  0  0  0
    5.1304   -0.6350    0.0000 C   0  0  0  0  0  0  0  0  0  0  0  0
    6.5609   -0.1839    0.0000 C   0  0  0  0  0  0  0  0  0  0  0  0
    7.6669   -1.1973    0.0000 O   0  0  0  0  0  0  0  0  0  0  0  0
    9.0974   -0.7462    0.0000 C   0  0  0  0  0  0  0  0  0  0  0  0
    6.8856    1.2805    0.0000 C   0  0  0  0  0  0  0  0  0  0  0  0
    5.7796    2.2939    0.0000 C   0  0  0  0  0  0  0  0  0  0  0  0
    4.3491    1.8428    0.0000 C   0  0  0  0  0  0  0  0  0  0  0  0
    4.0244    0.3784    0.0000 C   0  0  0  0  0  0  0  0  0  0  0  0
   -2.8038   -0.4126    0.0000 C   0  0  0  0  0  0  0  0  0  0  0  0
   -4.2344   -0.8637    0.0000 C   0  0  0  0  0  0  0  0  0  0  0  0
  1  2  1  0
  2  3  1  0
  3  4  1  0
  4  5  1  0
  3  6  1  0
  6  7  1  0
  7  8  1  0
  8  9  1  0
  9 10  1  0
 10 11  1  0
 11 12  1  0
 12 13  1  0
 13 14  1  0
 14 15  1  0
 15 16  1  0
 16 17  1  0
 17 18  2  0
 18 19  1  0
 19 20  1  0
 18 21  1  0
 21 22  2  0
 22 23  1  0
 23 24  2  0
  9 25  1  0
 25 26  1  0
 26  6  1  0
 24 13  1  0
 24 17  1  0
M  END
>  <Compound_Key>  (1154) 
25

>  <Ki>  (1154) 
12.7

>  <database>  (1154) 
NewLiterature

>  <Document_ChEMBL_ID>  (1154) 
10.1038/s41598-023-39688-w

$$$$

     RDKit          2D

 28 30  0  0  0  0  0  0  0  0999 V2000
   -8.7577    0.8904    0.0000 C   0  0  0  0  0  0  0  0  0  0  0  0
   -7.9011   -0.3410    0.0000 O   0  0  0  0  0  0  0  0  0  0  0  0
   -6.4064   -0.2148    0.0000 C   0  0  0  0  0  0  0  0  0  0  0  0
   -5.7683    1.1427    0.0000 C   0  0  0  0  0  0  0  0  0  0  0  0
   -4.2736    1.2689    0.0000 C   0  0  0  0  0  0  0  0  0  0  0  0
   -3.4170    0.0375    0.0000 C   0  0  0  0  0  0  0  0  0  0  0  0
   -4.0551   -1.3200    0.0000 C   0  0  0  0  0  0  0  0  0  0  0  0
   -5.5498   -1.4462    0.0000 C   0  0  0  0  0  0  0  0  0  0  0  0
   -6.1879   -2.8037    0.0000 O   0  0  0  0  0  0  0  0  0  0  0  0
   -5.3313   -4.0350    0.0000 C   0  0  0  0  0  0  0  0  0  0  0  0
   -1.9224    0.1637    0.0000 C   0  0  0  0  0  0  0  0  0  0  0  0
   -1.2843    1.5212    0.0000 N   0  0  0  0  0  0  0  0  0  0  0  0
    0.2104    1.6473    0.0000 C   0  0  0  0  0  0  0  0  0  0  0  0
    1.0670    0.4160    0.0000 C   0  0  0  0  0  0  0  0  0  0  0  0
    2.5617    0.5421    0.0000 N   0  0  0  0  0  0  0  0  0  0  0  0
    3.4183   -0.6892    0.0000 C   0  0  0  0  0  0  0  0  0  0  0  0
    2.7802   -2.0467    0.0000 O   0  0  0  0  0  0  0  0  0  0  0  0
    4.9130   -0.5631    0.0000 C   0  0  0  0  0  0  0  0  0  0  0  0
    5.7696   -1.7944    0.0000 C   0  0  0  0  0  0  0  0  0  0  0  0
    7.2643   -1.6683    0.0000 C   0  0  0  0  0  0  0  0  0  0  0  0
    8.1209   -2.8996    0.0000 C   0  0  0  0  0  0  0  0  0  0  0  0
    7.9023   -0.3108    0.0000 C   0  0  0  0  0  0  0  0  0  0  0  0
    7.0458    0.9206    0.0000 C   0  0  0  0  0  0  0  0  0  0  0  0
    5.5511    0.7944    0.0000 C   0  0  0  0  0  0  0  0  0  0  0  0
    4.6945    2.0258    0.0000 O   0  0  0  0  0  0  0  0  0  0  0  0
    5.3326    3.3833    0.0000 C   0  0  0  0  0  0  0  0  0  0  0  0
   -2.1409    2.7525    0.0000 C   0  0  0  0  0  0  0  0  0  0  0  0
   -3.6356    2.6264    0.0000 C   0  0  0  0  0  0  0  0  0  0  0  0
  1  2  1  0
  2  3  1  0
  3  4  2  0
  4  5  1  0
  5  6  2  0
  6  7  1  0
  7  8  2  0
  8  9  1  0
  9 10  1  0
  6 11  1  0
 11 12  1  0
 12 13  1  0
 13 14  1  0
 14 15  1  0
 15 16  1  0
 16 17  2  0
 16 18  1  0
 18 19  2  0
 19 20  1  0
 20 21  1  0
 20 22  2  0
 22 23  1  0
 23 24  2  0
 24 25  1  0
 25 26  1  0
 12 27  1  0
 27 28  1  0
  8  3  1  0
 24 18  1  0
 28  5  1  0
M  END
>  <ChemBL_ID>  (1155) 
CHEMBL64260

>  <Compound_Key>  (1155) 
19

>  <Ki>  (1155) 
13.3

>  <database>  (1155) 
CHEMBL

>  <Assay_ChEMBL_ID>  (1155) 
CHEMBL808105

>  <Document_ChEMBL_ID>  (1155) 
CHEMBL1146691

$$$$

     RDKit          2D

 27 30  0  0  0  0  0  0  0  0999 V2000
   -9.4439   -0.8282    0.0000 C   0  0  0  0  0  0  0  0  0  0  0  0
   -8.0074   -1.2600    0.0000 O   0  0  0  0  0  0  0  0  0  0  0  0
   -6.9152   -0.2320    0.0000 C   0  0  0  0  0  0  0  0  0  0  0  0
   -7.2594    1.2280    0.0000 C   0  0  0  0  0  0  0  0  0  0  0  0
   -6.1671    2.2561    0.0000 C   0  0  0  0  0  0  0  0  0  0  0  0
   -4.7306    1.8242    0.0000 C   0  0  0  0  0  0  0  0  0  0  0  0
   -4.3864    0.3642    0.0000 C   0  0  0  0  0  0  0  0  0  0  0  0
   -5.4787   -0.6638    0.0000 C   0  0  0  0  0  0  0  0  0  0  0  0
   -5.1345   -2.1238    0.0000 C   0  0  0  0  0  0  0  0  0  0  0  0
   -3.6980   -2.5557    0.0000 C   0  0  0  0  0  0  0  0  0  0  0  0
   -2.6057   -1.5276    0.0000 C   0  0  0  0  0  0  0  0  0  0  0  0
   -2.9500   -0.0676    0.0000 C   0  0  0  0  0  0  0  0  0  0  0  0
   -1.8577    0.9604    0.0000 N   0  0  0  0  0  0  0  0  0  0  0  0
   -0.4212    0.5286    0.0000 C   0  0  0  0  0  0  0  0  0  0  0  0
    0.6711    1.5566    0.0000 C   0  0  0  0  0  0  0  0  0  0  0  0
    2.1075    1.1248    0.0000 N   0  0  0  0  0  0  0  0  0  0  0  0
    2.4518   -0.3352    0.0000 C   0  0  0  0  0  0  0  0  0  0  0  0
    3.8882   -0.7671    0.0000 C   0  0  0  0  0  0  0  0  0  0  0  0
    4.9805    0.2610    0.0000 N   0  0  0  0  0  0  0  0  0  0  0  0
    6.4170   -0.1709    0.0000 C   0  0  0  0  0  0  0  0  0  0  0  0
    6.7612   -1.6309    0.0000 C   0  0  0  0  0  0  0  0  0  0  0  0
    8.1977   -2.0627    0.0000 C   0  0  0  0  0  0  0  0  0  0  0  0
    9.2899   -1.0347    0.0000 C   0  0  0  0  0  0  0  0  0  0  0  0
    8.9457    0.4253    0.0000 C   0  0  0  0  0  0  0  0  0  0  0  0
    7.5092    0.8572    0.0000 C   0  0  0  0  0  0  0  0  0  0  0  0
    4.6363    1.7210    0.0000 C   0  0  0  0  0  0  0  0  0  0  0  0
    3.1998    2.1528    0.0000 C   0  0  0  0  0  0  0  0  0  0  0  0
  1  2  1  0
  2  3  1  0
  3  4  2  0
  4  5  1  0
  5  6  2  0
  6  7  1  0
  7  8  2  0
  8  9  1  0
  9 10  1  0
 10 11  1  0
 11 12  1  0
 12 13  1  6
 13 14  1  0
 14 15  1  0
 15 16  1  0
 16 17  1  0
 17 18  1  0
 18 19  1  0
 19 20  1  0
 20 21  1  0
 21 22  1  0
 22 23  1  0
 23 24  1  0
 24 25  1  0
 19 26  1  0
 26 27  1  0
  8  3  1  0
 27 16  1  0
 12  7  1  0
 25 20  1  0
M  END
>  <Compound_Key>  (1156) 
(+)-R-26

>  <Ki>  (1156) 
14.4

>  <database>  (1156) 
NewLiterature

>  <Document_ChEMBL_ID>  (1156) 
10.1038/s41598-023-39690-w

$$$$

     RDKit          2D

 28 31  0  0  0  0  0  0  0  0999 V2000
    6.0391   -4.4045    0.0000 C   0  0  0  0  0  0  0  0  0  0  0  0
    6.0684   -2.9048    0.0000 O   0  0  0  0  0  0  0  0  0  0  0  0
    4.7843   -2.1296    0.0000 C   0  0  0  0  0  0  0  0  0  0  0  0
    3.4709   -2.8541    0.0000 C   0  0  0  0  0  0  0  0  0  0  0  0
    2.1867   -2.0788    0.0000 C   0  0  0  0  0  0  0  0  0  0  0  0
    2.2160   -0.5791    0.0000 C   0  0  0  0  0  0  0  0  0  0  0  0
    3.5295    0.1454    0.0000 C   0  0  0  0  0  0  0  0  0  0  0  0
    4.8136   -0.6299    0.0000 C   0  0  0  0  0  0  0  0  0  0  0  0
    6.1271    0.0946    0.0000 C   0  0  0  0  0  0  0  0  0  0  0  0
    6.1564    1.5943    0.0000 C   0  0  0  0  0  0  0  0  0  0  0  0
    4.8722    2.3696    0.0000 C   0  0  0  0  0  0  0  0  0  0  0  0
    3.5588    1.6451    0.0000 C   0  0  0  0  0  0  0  0  0  0  0  0
    2.2746    2.4203    0.0000 N   0  0  0  0  0  0  0  0  0  0  0  0
    2.3039    3.9200    0.0000 C   0  0  0  0  0  0  0  0  0  0  0  0
    0.9612    1.6958    0.0000 C   0  0  0  0  0  0  0  0  0  0  0  0
   -0.3229    2.4711    0.0000 C   0  0  0  0  0  0  0  0  0  0  0  0
   -1.6364    1.7466    0.0000 N   0  0  0  0  0  0  0  0  0  0  0  0
   -2.9205    2.5218    0.0000 C   0  0  0  0  0  0  0  0  0  0  0  0
   -4.2340    1.7973    0.0000 C   0  0  0  0  0  0  0  0  0  0  0  0
   -4.2633    0.2976    0.0000 N   0  0  0  0  0  0  0  0  0  0  0  0
   -5.5767   -0.4269    0.0000 C   0  0  0  0  0  0  0  0  0  0  0  0
   -6.8608    0.3484    0.0000 C   0  0  0  0  0  0  0  0  0  0  0  0
   -8.1743   -0.3761    0.0000 C   0  0  0  0  0  0  0  0  0  0  0  0
   -8.2036   -1.8758    0.0000 C   0  0  0  0  0  0  0  0  0  0  0  0
   -6.9195   -2.6510    0.0000 C   0  0  0  0  0  0  0  0  0  0  0  0
   -5.6060   -1.9266    0.0000 C   0  0  0  0  0  0  0  0  0  0  0  0
   -2.9791   -0.4776    0.0000 C   0  0  0  0  0  0  0  0  0  0  0  0
   -1.6657    0.2469    0.0000 C   0  0  0  0  0  0  0  0  0  0  0  0
  1  2  1  0
  2  3  1  0
  3  4  2  0
  4  5  1  0
  5  6  2  0
  6  7  1  0
  7  8  2  0
  8  9  1  0
  9 10  1  0
 10 11  1  0
 11 12  1  0
 12 13  1  0
 13 14  1  0
 13 15  1  0
 15 16  1  0
 16 17  1  0
 17 18  1  0
 18 19  1  0
 19 20  1  0
 20 21  1  0
 21 22  1  0
 22 23  1  0
 23 24  1  0
 24 25  1  0
 25 26  1  0
 20 27  1  0
 27 28  1  0
  8  3  1  0
 28 17  1  0
 12  7  1  0
 26 21  1  0
M  END
>  <Compound_Key>  (1157) 
27

>  <Ki>  (1157) 
15.3

>  <database>  (1157) 
NewLiterature

>  <Document_ChEMBL_ID>  (1157) 
10.1038/s41598-023-39692-w

$$$$

     RDKit          2D

 27 30  0  0  0  0  0  0  0  0999 V2000
   -9.4439   -0.8282    0.0000 C   0  0  0  0  0  0  0  0  0  0  0  0
   -8.0074   -1.2600    0.0000 O   0  0  0  0  0  0  0  0  0  0  0  0
   -6.9152   -0.2320    0.0000 C   0  0  0  0  0  0  0  0  0  0  0  0
   -7.2594    1.2280    0.0000 C   0  0  0  0  0  0  0  0  0  0  0  0
   -6.1671    2.2561    0.0000 C   0  0  0  0  0  0  0  0  0  0  0  0
   -4.7306    1.8242    0.0000 C   0  0  0  0  0  0  0  0  0  0  0  0
   -4.3864    0.3642    0.0000 C   0  0  0  0  0  0  0  0  0  0  0  0
   -5.4787   -0.6638    0.0000 C   0  0  0  0  0  0  0  0  0  0  0  0
   -5.1345   -2.1238    0.0000 C   0  0  0  0  0  0  0  0  0  0  0  0
   -3.6980   -2.5557    0.0000 C   0  0  0  0  0  0  0  0  0  0  0  0
   -2.6057   -1.5276    0.0000 C   0  0  0  0  0  0  0  0  0  0  0  0
   -2.9500   -0.0676    0.0000 C   0  0  0  0  0  0  0  0  0  0  0  0
   -1.8577    0.9604    0.0000 O   0  0  0  0  0  0  0  0  0  0  0  0
   -0.4212    0.5286    0.0000 C   0  0  0  0  0  0  0  0  0  0  0  0
    0.6711    1.5566    0.0000 C   0  0  0  0  0  0  0  0  0  0  0  0
    2.1075    1.1248    0.0000 N   0  0  0  0  0  0  0  0  0  0  0  0
    2.4518   -0.3352    0.0000 C   0  0  0  0  0  0  0  0  0  0  0  0
    3.8882   -0.7671    0.0000 C   0  0  0  0  0  0  0  0  0  0  0  0
    4.9805    0.2610    0.0000 N   0  0  0  0  0  0  0  0  0  0  0  0
    6.4170   -0.1709    0.0000 C   0  0  0  0  0  0  0  0  0  0  0  0
    6.7612   -1.6309    0.0000 C   0  0  0  0  0  0  0  0  0  0  0  0
    8.1977   -2.0627    0.0000 C   0  0  0  0  0  0  0  0  0  0  0  0
    9.2899   -1.0347    0.0000 C   0  0  0  0  0  0  0  0  0  0  0  0
    8.9457    0.4253    0.0000 C   0  0  0  0  0  0  0  0  0  0  0  0
    7.5092    0.8572    0.0000 C   0  0  0  0  0  0  0  0  0  0  0  0
    4.6363    1.7210    0.0000 C   0  0  0  0  0  0  0  0  0  0  0  0
    3.1998    2.1528    0.0000 C   0  0  0  0  0  0  0  0  0  0  0  0
  1  2  1  0
  2  3  1  0
  3  4  2  0
  4  5  1  0
  5  6  2  0
  6  7  1  0
  7  8  2  0
  8  9  1  0
  9 10  1  0
 10 11  1  0
 11 12  1  0
 12 13  1  0
 13 14  1  0
 14 15  1  0
 15 16  1  0
 16 17  1  0
 17 18  1  0
 18 19  1  0
 19 20  1  0
 20 21  1  0
 21 22  1  0
 22 23  1  0
 23 24  1  0
 24 25  1  0
 19 26  1  0
 26 27  1  0
  8  3  1  0
 27 16  1  0
 12  7  1  0
 25 20  1  0
M  END
>  <Compound_Key>  (1158) 
28

>  <Ki>  (1158) 
9.03

>  <database>  (1158) 
NewLiterature

>  <Document_ChEMBL_ID>  (1158) 
10.1038/s41598-023-39693-w

$$$$

     RDKit          2D

 27 30  0  0  0  0  0  0  0  0999 V2000
   -9.4439   -0.8282    0.0000 C   0  0  0  0  0  0  0  0  0  0  0  0
   -8.0074   -1.2600    0.0000 O   0  0  0  0  0  0  0  0  0  0  0  0
   -6.9152   -0.2320    0.0000 C   0  0  0  0  0  0  0  0  0  0  0  0
   -7.2594    1.2280    0.0000 C   0  0  0  0  0  0  0  0  0  0  0  0
   -6.1671    2.2561    0.0000 C   0  0  0  0  0  0  0  0  0  0  0  0
   -4.7306    1.8242    0.0000 C   0  0  0  0  0  0  0  0  0  0  0  0
   -4.3864    0.3642    0.0000 C   0  0  0  0  0  0  0  0  0  0  0  0
   -5.4787   -0.6638    0.0000 C   0  0  0  0  0  0  0  0  0  0  0  0
   -5.1345   -2.1238    0.0000 O   0  0  0  0  0  0  0  0  0  0  0  0
   -3.6980   -2.5557    0.0000 C   0  0  0  0  0  0  0  0  0  0  0  0
   -2.6057   -1.5276    0.0000 C   0  0  0  0  0  0  0  0  0  0  0  0
   -2.9500   -0.0676    0.0000 C   0  0  0  0  0  0  0  0  0  0  0  0
   -1.8577    0.9604    0.0000 O   0  0  0  0  0  0  0  0  0  0  0  0
   -0.4212    0.5286    0.0000 C   0  0  0  0  0  0  0  0  0  0  0  0
    0.6711    1.5566    0.0000 C   0  0  0  0  0  0  0  0  0  0  0  0
    2.1075    1.1248    0.0000 N   0  0  0  0  0  0  0  0  0  0  0  0
    2.4518   -0.3352    0.0000 C   0  0  0  0  0  0  0  0  0  0  0  0
    3.8882   -0.7671    0.0000 C   0  0  0  0  0  0  0  0  0  0  0  0
    4.9805    0.2610    0.0000 N   0  0  0  0  0  0  0  0  0  0  0  0
    6.4170   -0.1709    0.0000 C   0  0  0  0  0  0  0  0  0  0  0  0
    6.7612   -1.6309    0.0000 C   0  0  0  0  0  0  0  0  0  0  0  0
    8.1977   -2.0627    0.0000 C   0  0  0  0  0  0  0  0  0  0  0  0
    9.2899   -1.0347    0.0000 C   0  0  0  0  0  0  0  0  0  0  0  0
    8.9457    0.4253    0.0000 C   0  0  0  0  0  0  0  0  0  0  0  0
    7.5092    0.8572    0.0000 C   0  0  0  0  0  0  0  0  0  0  0  0
    4.6363    1.7210    0.0000 C   0  0  0  0  0  0  0  0  0  0  0  0
    3.1998    2.1528    0.0000 C   0  0  0  0  0  0  0  0  0  0  0  0
  1  2  1  0
  2  3  1  0
  3  4  2  0
  4  5  1  0
  5  6  2  0
  6  7  1  0
  7  8  2  0
  8  9  1  0
  9 10  1  0
 10 11  1  0
 11 12  1  0
 12 13  1  0
 13 14  1  0
 14 15  1  0
 15 16  1  0
 16 17  1  0
 17 18  1  0
 18 19  1  0
 19 20  1  0
 20 21  1  0
 21 22  1  0
 22 23  1  0
 23 24  1  0
 24 25  1  0
 19 26  1  0
 26 27  1  0
  8  3  1  0
 27 16  1  0
 12  7  1  0
 25 20  1  0
M  END
>  <Compound_Key>  (1159) 
29

>  <Ki>  (1159) 
9.72

>  <database>  (1159) 
NewLiterature

>  <Document_ChEMBL_ID>  (1159) 
10.1038/s41598-023-39694-w

$$$$

     RDKit          2D

 28 30  0  0  0  0  0  0  0  0999 V2000
   -8.7577    0.8904    0.0000 C   0  0  0  0  0  0  0  0  0  0  0  0
   -7.9011   -0.3410    0.0000 O   0  0  0  0  0  0  0  0  0  0  0  0
   -6.4064   -0.2148    0.0000 C   0  0  0  0  0  0  0  0  0  0  0  0
   -5.7683    1.1427    0.0000 C   0  0  0  0  0  0  0  0  0  0  0  0
   -4.2736    1.2689    0.0000 C   0  0  0  0  0  0  0  0  0  0  0  0
   -3.4170    0.0375    0.0000 C   0  0  0  0  0  0  0  0  0  0  0  0
   -4.0551   -1.3200    0.0000 C   0  0  0  0  0  0  0  0  0  0  0  0
   -5.5498   -1.4462    0.0000 C   0  0  0  0  0  0  0  0  0  0  0  0
   -6.1879   -2.8037    0.0000 O   0  0  0  0  0  0  0  0  0  0  0  0
   -5.3313   -4.0350    0.0000 C   0  0  0  0  0  0  0  0  0  0  0  0
   -1.9224    0.1637    0.0000 C   0  0  0  0  0  0  0  0  0  0  0  0
   -1.2843    1.5212    0.0000 N   0  0  0  0  0  0  0  0  0  0  0  0
    0.2104    1.6473    0.0000 C   0  0  0  0  0  0  0  0  0  0  0  0
    1.0670    0.4160    0.0000 C   0  0  0  0  0  0  0  0  0  0  0  0
    2.5617    0.5421    0.0000 N   0  0  0  0  0  0  0  0  0  0  0  0
    3.4183   -0.6892    0.0000 C   0  0  0  0  0  0  0  0  0  0  0  0
    2.7802   -2.0467    0.0000 O   0  0  0  0  0  0  0  0  0  0  0  0
    4.9130   -0.5631    0.0000 C   0  0  0  0  0  0  0  0  0  0  0  0
    5.7696   -1.7944    0.0000 C   0  0  0  0  0  0  0  0  0  0  0  0
    7.2643   -1.6683    0.0000 C   0  0  0  0  0  0  0  0  0  0  0  0
    8.1209   -2.8996    0.0000 Br  0  0  0  0  0  0  0  0  0  0  0  0
    7.9023   -0.3108    0.0000 C   0  0  0  0  0  0  0  0  0  0  0  0
    7.0458    0.9206    0.0000 C   0  0  0  0  0  0  0  0  0  0  0  0
    5.5511    0.7944    0.0000 C   0  0  0  0  0  0  0  0  0  0  0  0
    4.6945    2.0258    0.0000 O   0  0  0  0  0  0  0  0  0  0  0  0
    5.3326    3.3833    0.0000 C   0  0  0  0  0  0  0  0  0  0  0  0
   -2.1409    2.7525    0.0000 C   0  0  0  0  0  0  0  0  0  0  0  0
   -3.6356    2.6264    0.0000 C   0  0  0  0  0  0  0  0  0  0  0  0
  1  2  1  0
  2  3  1  0
  3  4  2  0
  4  5  1  0
  5  6  2  0
  6  7  1  0
  7  8  2  0
  8  9  1  0
  9 10  1  0
  6 11  1  0
 11 12  1  0
 12 13  1  0
 13 14  1  0
 14 15  1  0
 15 16  1  0
 16 17  2  0
 16 18  1  0
 18 19  2  0
 19 20  1  0
 20 21  1  0
 20 22  2  0
 22 23  1  0
 23 24  2  0
 24 25  1  0
 25 26  1  0
 12 27  1  0
 27 28  1  0
  8  3  1  0
 24 18  1  0
 28  5  1  0
M  END
>  <ChemBL_ID>  (1160) 
CHEMBL64261

>  <Compound_Key>  (1160) 
18

>  <Ki>  (1160) 
12.4

>  <database>  (1160) 
CHEMBL

>  <Assay_ChEMBL_ID>  (1160) 
CHEMBL808105

>  <Document_ChEMBL_ID>  (1160) 
CHEMBL1146691

$$$$

     RDKit          2D

 27 30  0  0  0  0  0  0  0  0999 V2000
   -9.4439   -0.8282    0.0000 C   0  0  0  0  0  0  0  0  0  0  0  0
   -8.0074   -1.2600    0.0000 O   0  0  0  0  0  0  0  0  0  0  0  0
   -6.9152   -0.2320    0.0000 C   0  0  0  0  0  0  0  0  0  0  0  0
   -7.2594    1.2280    0.0000 C   0  0  0  0  0  0  0  0  0  0  0  0
   -6.1671    2.2561    0.0000 C   0  0  0  0  0  0  0  0  0  0  0  0
   -4.7306    1.8242    0.0000 C   0  0  0  0  0  0  0  0  0  0  0  0
   -4.3864    0.3642    0.0000 C   0  0  0  0  0  0  0  0  0  0  0  0
   -2.9500   -0.0676    0.0000 C   0  0  0  0  0  0  0  0  0  0  0  0
   -1.8577    0.9604    0.0000 O   0  0  0  0  0  0  0  0  0  0  0  0
   -0.4212    0.5286    0.0000 C   0  0  0  0  0  0  0  0  0  0  0  0
    0.6711    1.5566    0.0000 C   0  0  0  0  0  0  0  0  0  0  0  0
    2.1075    1.1248    0.0000 N   0  0  0  0  0  0  0  0  0  0  0  0
    2.4518   -0.3352    0.0000 C   0  0  0  0  0  0  0  0  0  0  0  0
    3.8882   -0.7671    0.0000 C   0  0  0  0  0  0  0  0  0  0  0  0
    4.9805    0.2610    0.0000 N   0  0  0  0  0  0  0  0  0  0  0  0
    6.4170   -0.1709    0.0000 C   0  0  0  0  0  0  0  0  0  0  0  0
    6.7612   -1.6309    0.0000 C   0  0  0  0  0  0  0  0  0  0  0  0
    8.1977   -2.0627    0.0000 C   0  0  0  0  0  0  0  0  0  0  0  0
    9.2899   -1.0347    0.0000 C   0  0  0  0  0  0  0  0  0  0  0  0
    8.9457    0.4253    0.0000 C   0  0  0  0  0  0  0  0  0  0  0  0
    7.5092    0.8572    0.0000 C   0  0  0  0  0  0  0  0  0  0  0  0
    4.6363    1.7210    0.0000 C   0  0  0  0  0  0  0  0  0  0  0  0
    3.1998    2.1528    0.0000 C   0  0  0  0  0  0  0  0  0  0  0  0
   -2.6057   -1.5276    0.0000 C   0  0  0  0  0  0  0  0  0  0  0  0
   -3.6980   -2.5557    0.0000 C   0  0  0  0  0  0  0  0  0  0  0  0
   -5.1345   -2.1238    0.0000 C   0  0  0  0  0  0  0  0  0  0  0  0
   -5.4787   -0.6638    0.0000 C   0  0  0  0  0  0  0  0  0  0  0  0
  1  2  1  0
  2  3  1  0
  3  4  2  0
  4  5  1  0
  5  6  2  0
  6  7  1  0
  7  8  2  0
  8  9  1  0
  9 10  1  0
 10 11  1  0
 11 12  1  0
 12 13  1  0
 13 14  1  0
 14 15  1  0
 15 16  1  0
 16 17  1  0
 17 18  1  0
 18 19  1  0
 19 20  1  0
 20 21  1  0
 15 22  1  0
 22 23  1  0
  8 24  1  0
 24 25  2  0
 25 26  1  0
 26 27  2  0
 27  3  1  0
 27  7  1  0
 23 12  1  0
 21 16  1  0
M  END
>  <Compound_Key>  (1161) 
31

>  <Ki>  (1161) 
2.4

>  <database>  (1161) 
NewLiterature

>  <Document_ChEMBL_ID>  (1161) 
10.1038/s41598-023-39696-w

$$$$

     RDKit          2D

 28 32  0  0  0  0  0  0  0  0999 V2000
    7.7666   -1.0772    0.0000 C   0  0  0  0  0  0  0  0  0  0  0  0
    6.9721   -2.3495    0.0000 C   0  0  0  0  0  0  0  0  0  0  0  0
    5.4730   -2.2976    0.0000 C   0  0  0  0  0  0  0  0  0  0  0  0
    4.7684   -0.9733    0.0000 C   0  0  0  0  0  0  0  0  0  0  0  0
    5.5630    0.2990    0.0000 C   0  0  0  0  0  0  0  0  0  0  0  0
    7.0621    0.2470    0.0000 C   0  0  0  0  0  0  0  0  0  0  0  0
    4.5984    1.4477    0.0000 C   0  0  0  0  0  0  0  0  0  0  0  0
    4.8068    2.9332    0.0000 C   0  0  0  0  0  0  0  0  0  0  0  0
    3.6245    3.8564    0.0000 C   0  0  0  0  0  0  0  0  0  0  0  0
    2.2339    3.2940    0.0000 C   0  0  0  0  0  0  0  0  0  0  0  0
    2.0255    1.8086    0.0000 C   0  0  0  0  0  0  0  0  0  0  0  0
    3.2078    0.8854    0.0000 C   0  0  0  0  0  0  0  0  0  0  0  0
    3.3129   -0.6109    0.0000 C   0  0  0  0  0  0  0  0  0  0  0  0
    2.1641   -1.5754    0.0000 C   0  0  0  0  0  0  0  0  0  0  0  0
    0.7544   -1.0628    0.0000 C   0  0  0  0  0  0  0  0  0  0  0  0
   -0.3944   -2.0273    0.0000 C   0  0  0  0  0  0  0  0  0  0  0  0
   -1.8041   -1.5147    0.0000 N   0  0  0  0  0  0  0  0  0  0  0  0
   -2.0650   -0.0375    0.0000 C   0  0  0  0  0  0  0  0  0  0  0  0
   -3.4746    0.4751    0.0000 C   0  0  0  0  0  0  0  0  0  0  0  0
   -4.6234   -0.4894    0.0000 N   0  0  0  0  0  0  0  0  0  0  0  0
   -6.0331    0.0232    0.0000 C   0  0  0  0  0  0  0  0  0  0  0  0
   -6.2940    1.5003    0.0000 C   0  0  0  0  0  0  0  0  0  0  0  0
   -7.7037    2.0129    0.0000 C   0  0  0  0  0  0  0  0  0  0  0  0
   -8.8525    1.0484    0.0000 C   0  0  0  0  0  0  0  0  0  0  0  0
   -8.5916   -0.4287    0.0000 C   0  0  0  0  0  0  0  0  0  0  0  0
   -7.1819   -0.9413    0.0000 C   0  0  0  0  0  0  0  0  0  0  0  0
   -4.3625   -1.9666    0.0000 C   0  0  0  0  0  0  0  0  0  0  0  0
   -2.9528   -2.4792    0.0000 C   0  0  0  0  0  0  0  0  0  0  0  0
  1  2  2  0
  2  3  1  0
  3  4  2  0
  4  5  1  0
  5  6  2  0
  5  7  1  0
  7  8  2  0
  8  9  1  0
  9 10  2  0
 10 11  1  0
 11 12  2  0
 12 13  1  0
 13 14  1  0
 14 15  1  0
 15 16  1  0
 16 17  1  0
 17 18  1  0
 18 19  1  0
 19 20  1  0
 20 21  1  0
 21 22  1  0
 22 23  1  0
 23 24  1  0
 24 25  1  0
 25 26  1  0
 20 27  1  0
 27 28  1  0
  6  1  1  0
 12  7  1  0
 28 17  1  0
 13  4  1  0
 26 21  1  0
M  END
>  <Compound_Key>  (1162) 
32

>  <Ki>  (1162) 
12.6

>  <database>  (1162) 
NewLiterature

>  <Document_ChEMBL_ID>  (1162) 
10.1038/s41598-023-39697-w

$$$$

     RDKit          2D

 26 29  0  0  0  0  0  0  0  0999 V2000
    4.8924   -2.5422    0.0000 O   0  0  0  0  0  0  0  0  0  0  0  0
    4.6633   -1.0598    0.0000 C   0  0  0  0  0  0  0  0  0  0  0  0
    5.8325   -0.1202    0.0000 C   0  0  0  0  0  0  0  0  0  0  0  0
    7.2309   -0.6630    0.0000 C   0  0  0  0  0  0  0  0  0  0  0  0
    8.4001    0.2766    0.0000 C   0  0  0  0  0  0  0  0  0  0  0  0
    8.1710    1.7590    0.0000 C   0  0  0  0  0  0  0  0  0  0  0  0
    6.7727    2.3018    0.0000 C   0  0  0  0  0  0  0  0  0  0  0  0
    5.6034    1.3622    0.0000 C   0  0  0  0  0  0  0  0  0  0  0  0
    4.2051    1.9050    0.0000 C   0  0  0  0  0  0  0  0  0  0  0  0
    3.0358    0.9654    0.0000 C   0  0  0  0  0  0  0  0  0  0  0  0
    3.2649   -0.5170    0.0000 N   0  0  0  0  0  0  0  0  0  0  0  0
    2.0957   -1.4566    0.0000 C   0  0  0  0  0  0  0  0  0  0  0  0
    0.6973   -0.9138    0.0000 C   0  0  0  0  0  0  0  0  0  0  0  0
   -0.4719   -1.8534    0.0000 C   0  0  0  0  0  0  0  0  0  0  0  0
   -1.8703   -1.3106    0.0000 N   0  0  0  0  0  0  0  0  0  0  0  0
   -2.0993    0.1718    0.0000 C   0  0  0  0  0  0  0  0  0  0  0  0
   -3.4977    0.7146    0.0000 C   0  0  0  0  0  0  0  0  0  0  0  0
   -4.6669   -0.2250    0.0000 N   0  0  0  0  0  0  0  0  0  0  0  0
   -6.0653    0.3178    0.0000 C   0  0  0  0  0  0  0  0  0  0  0  0
   -6.2944    1.8002    0.0000 C   0  0  0  0  0  0  0  0  0  0  0  0
   -7.6927    2.3430    0.0000 C   0  0  0  0  0  0  0  0  0  0  0  0
   -8.8620    1.4034    0.0000 C   0  0  0  0  0  0  0  0  0  0  0  0
   -8.6329   -0.0790    0.0000 C   0  0  0  0  0  0  0  0  0  0  0  0
   -7.2345   -0.6218    0.0000 C   0  0  0  0  0  0  0  0  0  0  0  0
   -4.4379   -1.7074    0.0000 C   0  0  0  0  0  0  0  0  0  0  0  0
   -3.0395   -2.2502    0.0000 C   0  0  0  0  0  0  0  0  0  0  0  0
  1  2  2  0
  2  3  1  0
  3  4  2  0
  4  5  1  0
  5  6  2  0
  6  7  1  0
  7  8  2  0
  8  9  1  0
  9 10  1  0
 10 11  1  0
 11 12  1  0
 12 13  1  0
 13 14  1  0
 14 15  1  0
 15 16  1  0
 16 17  1  0
 17 18  1  0
 18 19  1  0
 19 20  1  0
 20 21  1  0
 21 22  1  0
 22 23  1  0
 23 24  1  0
 18 25  1  0
 25 26  1  0
 11  2  1  0
 26 15  1  0
  8  3  1  0
 24 19  1  0
M  END
>  <Compound_Key>  (1163) 
34

>  <Ki>  (1163) 
26.6

>  <database>  (1163) 
NewLiterature

>  <Document_ChEMBL_ID>  (1163) 
10.1038/s41598-023-39699-w

$$$$

     RDKit          2D

 26 29  0  0  0  0  0  0  0  0999 V2000
   -5.6445    2.9619    0.0000 O   0  0  0  0  0  0  0  0  0  0  0  0
   -5.4433    1.4755    0.0000 C   0  0  0  0  0  0  0  0  0  0  0  0
   -6.6300    0.5580    0.0000 C   0  0  0  0  0  0  0  0  0  0  0  0
   -6.4288   -0.9284    0.0000 O   0  0  0  0  0  0  0  0  0  0  0  0
   -5.0408   -1.4974    0.0000 C   0  0  0  0  0  0  0  0  0  0  0  0
   -4.8396   -2.9838    0.0000 C   0  0  0  0  0  0  0  0  0  0  0  0
   -3.4517   -3.5528    0.0000 C   0  0  0  0  0  0  0  0  0  0  0  0
   -2.2650   -2.6353    0.0000 C   0  0  0  0  0  0  0  0  0  0  0  0
   -2.4663   -1.1489    0.0000 N   0  0  0  0  0  0  0  0  0  0  0  0
   -3.8542   -0.5799    0.0000 C   0  0  0  0  0  0  0  0  0  0  0  0
   -4.0554    0.9065    0.0000 N   0  0  0  0  0  0  0  0  0  0  0  0
   -2.8687    1.8240    0.0000 C   0  0  0  0  0  0  0  0  0  0  0  0
   -1.4808    1.2550    0.0000 C   0  0  0  0  0  0  0  0  0  0  0  0
   -0.2941    2.1725    0.0000 C   0  0  0  0  0  0  0  0  0  0  0  0
    1.0938    1.6035    0.0000 N   0  0  0  0  0  0  0  0  0  0  0  0
    1.2950    0.1171    0.0000 C   0  0  0  0  0  0  0  0  0  0  0  0
    2.6829   -0.4519    0.0000 C   0  0  0  0  0  0  0  0  0  0  0  0
    3.8696    0.4656    0.0000 N   0  0  0  0  0  0  0  0  0  0  0  0
    5.2575   -0.1034    0.0000 C   0  0  0  0  0  0  0  0  0  0  0  0
    5.4587   -1.5898    0.0000 C   0  0  0  0  0  0  0  0  0  0  0  0
    6.8466   -2.1588    0.0000 C   0  0  0  0  0  0  0  0  0  0  0  0
    8.0333   -1.2413    0.0000 C   0  0  0  0  0  0  0  0  0  0  0  0
    7.8321    0.2451    0.0000 C   0  0  0  0  0  0  0  0  0  0  0  0
    6.4442    0.8141    0.0000 C   0  0  0  0  0  0  0  0  0  0  0  0
    3.6684    1.9520    0.0000 C   0  0  0  0  0  0  0  0  0  0  0  0
    2.2805    2.5210    0.0000 C   0  0  0  0  0  0  0  0  0  0  0  0
  1  2  2  0
  2  3  1  0
  3  4  1  0
  4  5  1  0
  5  6  2  0
  6  7  1  0
  7  8  2  0
  8  9  1  0
  9 10  2  0
 10 11  1  0
 11 12  1  0
 12 13  1  0
 13 14  1  0
 14 15  1  0
 15 16  1  0
 16 17  1  0
 17 18  1  0
 18 19  1  0
 19 20  1  0
 20 21  1  0
 21 22  1  0
 22 23  1  0
 23 24  1  0
 18 25  1  0
 25 26  1  0
 11  2  1  0
 26 15  1  0
 10  5  1  0
 24 19  1  0
M  END
>  <Compound_Key>  (1164) 
35

>  <Ki>  (1164) 
16.0

>  <database>  (1164) 
NewLiterature

>  <Document_ChEMBL_ID>  (1164) 
10.1038/s41598-023-39700-w

$$$$

     RDKit          2D

 27 30  0  0  0  0  0  0  0  0999 V2000
   -9.0933   -2.1389    0.0000 C   0  0  0  0  0  0  0  0  0  0  0  0
   -9.0933   -0.6389    0.0000 C   0  0  0  0  0  0  0  0  0  0  0  0
   -7.7942    0.1111    0.0000 C   0  0  0  0  0  0  0  0  0  0  0  0
   -6.4952   -0.6389    0.0000 C   0  0  0  0  0  0  0  0  0  0  0  0
   -5.1962    0.1111    0.0000 C   0  0  0  0  0  0  0  0  0  0  0  0
   -3.8971   -0.6389    0.0000 C   0  0  0  0  0  0  0  0  0  0  0  0
   -2.5981    0.1111    0.0000 C   0  0  0  0  0  0  0  0  0  0  0  0
   -2.5981    1.6111    0.0000 C   0  0  0  0  0  0  0  0  0  0  0  0
   -1.2990    2.3611    0.0000 C   0  0  0  0  0  0  0  0  0  0  0  0
    0.0000    1.6111    0.0000 C   0  0  0  0  0  0  0  0  0  0  0  0
    1.2990    2.3611    0.0000 C   0  0  0  0  0  0  0  0  0  0  0  0
    2.5981    1.6111    0.0000 N   0  0  0  0  0  0  0  0  0  0  0  0
    2.5981    0.1111    0.0000 C   0  0  0  0  0  0  0  0  0  0  0  0
    3.8971   -0.6389    0.0000 C   0  0  0  0  0  0  0  0  0  0  0  0
    5.1962    0.1111    0.0000 N   0  0  0  0  0  0  0  0  0  0  0  0
    6.4952   -0.6389    0.0000 C   0  0  0  0  0  0  0  0  0  0  0  0
    6.4952   -2.1389    0.0000 C   0  0  0  0  0  0  0  0  0  0  0  0
    7.7942   -2.8889    0.0000 C   0  0  0  0  0  0  0  0  0  0  0  0
    9.0933   -2.1389    0.0000 C   0  0  0  0  0  0  0  0  0  0  0  0
    9.0933   -0.6389    0.0000 C   0  0  0  0  0  0  0  0  0  0  0  0
    7.7942    0.1111    0.0000 C   0  0  0  0  0  0  0  0  0  0  0  0
    5.1962    1.6111    0.0000 C   0  0  0  0  0  0  0  0  0  0  0  0
    3.8971    2.3611    0.0000 C   0  0  0  0  0  0  0  0  0  0  0  0
   -3.8971    2.3611    0.0000 C   0  0  0  0  0  0  0  0  0  0  0  0
   -5.1962    1.6111    0.0000 C   0  0  0  0  0  0  0  0  0  0  0  0
   -6.4952   -2.1389    0.0000 C   0  0  0  0  0  0  0  0  0  0  0  0
   -7.7942   -2.8889    0.0000 C   0  0  0  0  0  0  0  0  0  0  0  0
  1  2  2  0
  2  3  1  0
  3  4  2  0
  5  4  1  6
  5  6  1  0
  6  7  1  0
  7  8  1  0
  8  9  1  6
  9 10  1  0
 10 11  1  0
 11 12  1  0
 12 13  1  0
 13 14  1  0
 14 15  1  0
 15 16  1  0
 16 17  1  0
 17 18  1  0
 18 19  1  0
 19 20  1  0
 20 21  1  0
 15 22  1  0
 22 23  1  0
  8 24  1  0
 24 25  1  0
  4 26  1  0
 26 27  2  0
 27  1  1  0
 25  5  1  0
 23 12  1  0
 21 16  1  0
M  END
>  <Compound_Key>  (1165) 
36cis

>  <Ki>  (1165) 
3.66

>  <database>  (1165) 
NewLiterature

>  <Document_ChEMBL_ID>  (1165) 
10.1038/s41598-023-39701-w

$$$$

     RDKit          2D

 27 30  0  0  0  0  0  0  0  0999 V2000
   -9.0933   -2.1389    0.0000 C   0  0  0  0  0  0  0  0  0  0  0  0
   -9.0933   -0.6389    0.0000 C   0  0  0  0  0  0  0  0  0  0  0  0
   -7.7942    0.1111    0.0000 C   0  0  0  0  0  0  0  0  0  0  0  0
   -6.4952   -0.6389    0.0000 C   0  0  0  0  0  0  0  0  0  0  0  0
   -5.1962    0.1111    0.0000 C   0  0  0  0  0  0  0  0  0  0  0  0
   -3.8971   -0.6389    0.0000 C   0  0  0  0  0  0  0  0  0  0  0  0
   -2.5981    0.1111    0.0000 C   0  0  0  0  0  0  0  0  0  0  0  0
   -2.5981    1.6111    0.0000 C   0  0  0  0  0  0  0  0  0  0  0  0
   -1.2990    2.3611    0.0000 C   0  0  0  0  0  0  0  0  0  0  0  0
    0.0000    1.6111    0.0000 C   0  0  0  0  0  0  0  0  0  0  0  0
    1.2990    2.3611    0.0000 C   0  0  0  0  0  0  0  0  0  0  0  0
    2.5981    1.6111    0.0000 N   0  0  0  0  0  0  0  0  0  0  0  0
    2.5981    0.1111    0.0000 C   0  0  0  0  0  0  0  0  0  0  0  0
    3.8971   -0.6389    0.0000 C   0  0  0  0  0  0  0  0  0  0  0  0
    5.1962    0.1111    0.0000 N   0  0  0  0  0  0  0  0  0  0  0  0
    6.4952   -0.6389    0.0000 C   0  0  0  0  0  0  0  0  0  0  0  0
    6.4952   -2.1389    0.0000 C   0  0  0  0  0  0  0  0  0  0  0  0
    7.7942   -2.8889    0.0000 C   0  0  0  0  0  0  0  0  0  0  0  0
    9.0933   -2.1389    0.0000 C   0  0  0  0  0  0  0  0  0  0  0  0
    9.0933   -0.6389    0.0000 C   0  0  0  0  0  0  0  0  0  0  0  0
    7.7942    0.1111    0.0000 C   0  0  0  0  0  0  0  0  0  0  0  0
    5.1962    1.6111    0.0000 C   0  0  0  0  0  0  0  0  0  0  0  0
    3.8971    2.3611    0.0000 C   0  0  0  0  0  0  0  0  0  0  0  0
   -3.8971    2.3611    0.0000 C   0  0  0  0  0  0  0  0  0  0  0  0
   -5.1962    1.6111    0.0000 C   0  0  0  0  0  0  0  0  0  0  0  0
   -6.4952   -2.1389    0.0000 C   0  0  0  0  0  0  0  0  0  0  0  0
   -7.7942   -2.8889    0.0000 C   0  0  0  0  0  0  0  0  0  0  0  0
  1  2  2  0
  2  3  1  0
  3  4  2  0
  5  4  1  6
  5  6  1  0
  6  7  1  0
  7  8  1  0
  8  9  1  1
  9 10  1  0
 10 11  1  0
 11 12  1  0
 12 13  1  0
 13 14  1  0
 14 15  1  0
 15 16  1  0
 16 17  1  0
 17 18  1  0
 18 19  1  0
 19 20  1  0
 20 21  1  0
 15 22  1  0
 22 23  1  0
  8 24  1  0
 24 25  1  0
  4 26  1  0
 26 27  2  0
 27  1  1  0
 25  5  1  0
 23 12  1  0
 21 16  1  0
M  END
>  <Compound_Key>  (1166) 
36trans

>  <Ki>  (1166) 
4.77

>  <database>  (1166) 
NewLiterature

>  <Document_ChEMBL_ID>  (1166) 
10.1038/s41598-023-39702-w

$$$$

     RDKit          2D

 29 32  0  0  0  0  0  0  0  0999 V2000
  -11.0102   -1.4491    0.0000 C   0  0  0  0  0  0  0  0  0  0  0  0
   -9.7479   -2.2594    0.0000 O   0  0  0  0  0  0  0  0  0  0  0  0
   -8.4150   -1.5714    0.0000 C   0  0  0  0  0  0  0  0  0  0  0  0
   -8.3444   -0.0730    0.0000 C   0  0  0  0  0  0  0  0  0  0  0  0
   -7.0116    0.6150    0.0000 C   0  0  0  0  0  0  0  0  0  0  0  0
   -5.7492   -0.1952    0.0000 C   0  0  0  0  0  0  0  0  0  0  0  0
   -4.4164    0.4928    0.0000 C   0  0  0  0  0  0  0  0  0  0  0  0
   -3.1540   -0.3175    0.0000 C   0  0  0  0  0  0  0  0  0  0  0  0
   -1.8212    0.3706    0.0000 C   0  0  0  0  0  0  0  0  0  0  0  0
   -1.7506    1.8689    0.0000 C   0  0  0  0  0  0  0  0  0  0  0  0
   -0.4177    2.5570    0.0000 C   0  0  0  0  0  0  0  0  0  0  0  0
    0.8446    1.7467    0.0000 C   0  0  0  0  0  0  0  0  0  0  0  0
    2.1775    2.4347    0.0000 C   0  0  0  0  0  0  0  0  0  0  0  0
    3.4398    1.6244    0.0000 N   0  0  0  0  0  0  0  0  0  0  0  0
    3.3692    0.1261    0.0000 C   0  0  0  0  0  0  0  0  0  0  0  0
    4.6316   -0.6842    0.0000 C   0  0  0  0  0  0  0  0  0  0  0  0
    5.9644    0.0039    0.0000 N   0  0  0  0  0  0  0  0  0  0  0  0
    7.2268   -0.8064    0.0000 C   0  0  0  0  0  0  0  0  0  0  0  0
    7.1562   -2.3047    0.0000 C   0  0  0  0  0  0  0  0  0  0  0  0
    8.4185   -3.1150    0.0000 C   0  0  0  0  0  0  0  0  0  0  0  0
    9.7514   -2.4270    0.0000 C   0  0  0  0  0  0  0  0  0  0  0  0
    9.8220   -0.9286    0.0000 C   0  0  0  0  0  0  0  0  0  0  0  0
    8.5596   -0.1184    0.0000 C   0  0  0  0  0  0  0  0  0  0  0  0
    6.0350    1.5022    0.0000 C   0  0  0  0  0  0  0  0  0  0  0  0
    4.7727    2.3125    0.0000 C   0  0  0  0  0  0  0  0  0  0  0  0
   -3.0129    2.6792    0.0000 C   0  0  0  0  0  0  0  0  0  0  0  0
   -4.3458    1.9911    0.0000 C   0  0  0  0  0  0  0  0  0  0  0  0
   -5.8198   -1.6936    0.0000 C   0  0  0  0  0  0  0  0  0  0  0  0
   -7.1527   -2.3816    0.0000 C   0  0  0  0  0  0  0  0  0  0  0  0
  1  2  1  0
  2  3  1  0
  3  4  2  0
  4  5  1  0
  5  6  2  0
  7  6  1  6
  7  8  1  0
  8  9  1  0
  9 10  1  0
 10 11  1  6
 11 12  1  0
 12 13  1  0
 13 14  1  0
 14 15  1  0
 15 16  1  0
 16 17  1  0
 17 18  1  0
 18 19  1  0
 19 20  1  0
 20 21  1  0
 21 22  1  0
 22 23  1  0
 17 24  1  0
 24 25  1  0
 10 26  1  0
 26 27  1  0
  6 28  1  0
 28 29  2  0
 29  3  1  0
 27  7  1  0
 25 14  1  0
 23 18  1  0
M  END
>  <Compound_Key>  (1167) 
37cis

>  <Ki>  (1167) 
1.59

>  <database>  (1167) 
NewLiterature

>  <Document_ChEMBL_ID>  (1167) 
10.1038/s41598-023-39703-w

$$$$

     RDKit          2D

 29 32  0  0  0  0  0  0  0  0999 V2000
  -11.0102   -1.4491    0.0000 C   0  0  0  0  0  0  0  0  0  0  0  0
   -9.7479   -2.2594    0.0000 O   0  0  0  0  0  0  0  0  0  0  0  0
   -8.4150   -1.5714    0.0000 C   0  0  0  0  0  0  0  0  0  0  0  0
   -8.3444   -0.0730    0.0000 C   0  0  0  0  0  0  0  0  0  0  0  0
   -7.0116    0.6150    0.0000 C   0  0  0  0  0  0  0  0  0  0  0  0
   -5.7492   -0.1952    0.0000 C   0  0  0  0  0  0  0  0  0  0  0  0
   -4.4164    0.4928    0.0000 C   0  0  0  0  0  0  0  0  0  0  0  0
   -3.1540   -0.3175    0.0000 C   0  0  0  0  0  0  0  0  0  0  0  0
   -1.8212    0.3706    0.0000 C   0  0  0  0  0  0  0  0  0  0  0  0
   -1.7506    1.8689    0.0000 C   0  0  0  0  0  0  0  0  0  0  0  0
   -0.4177    2.5570    0.0000 C   0  0  0  0  0  0  0  0  0  0  0  0
    0.8446    1.7467    0.0000 C   0  0  0  0  0  0  0  0  0  0  0  0
    2.1775    2.4347    0.0000 C   0  0  0  0  0  0  0  0  0  0  0  0
    3.4398    1.6244    0.0000 N   0  0  0  0  0  0  0  0  0  0  0  0
    3.3692    0.1261    0.0000 C   0  0  0  0  0  0  0  0  0  0  0  0
    4.6316   -0.6842    0.0000 C   0  0  0  0  0  0  0  0  0  0  0  0
    5.9644    0.0039    0.0000 N   0  0  0  0  0  0  0  0  0  0  0  0
    7.2268   -0.8064    0.0000 C   0  0  0  0  0  0  0  0  0  0  0  0
    7.1562   -2.3047    0.0000 C   0  0  0  0  0  0  0  0  0  0  0  0
    8.4185   -3.1150    0.0000 C   0  0  0  0  0  0  0  0  0  0  0  0
    9.7514   -2.4270    0.0000 C   0  0  0  0  0  0  0  0  0  0  0  0
    9.8220   -0.9286    0.0000 C   0  0  0  0  0  0  0  0  0  0  0  0
    8.5596   -0.1184    0.0000 C   0  0  0  0  0  0  0  0  0  0  0  0
    6.0350    1.5022    0.0000 C   0  0  0  0  0  0  0  0  0  0  0  0
    4.7727    2.3125    0.0000 C   0  0  0  0  0  0  0  0  0  0  0  0
   -3.0129    2.6792    0.0000 C   0  0  0  0  0  0  0  0  0  0  0  0
   -4.3458    1.9911    0.0000 C   0  0  0  0  0  0  0  0  0  0  0  0
   -5.8198   -1.6936    0.0000 C   0  0  0  0  0  0  0  0  0  0  0  0
   -7.1527   -2.3816    0.0000 C   0  0  0  0  0  0  0  0  0  0  0  0
  1  2  1  0
  2  3  1  0
  3  4  2  0
  4  5  1  0
  5  6  2  0
  7  6  1  6
  7  8  1  0
  8  9  1  0
  9 10  1  0
 10 11  1  1
 11 12  1  0
 12 13  1  0
 13 14  1  0
 14 15  1  0
 15 16  1  0
 16 17  1  0
 17 18  1  0
 18 19  1  0
 19 20  1  0
 20 21  1  0
 21 22  1  0
 22 23  1  0
 17 24  1  0
 24 25  1  0
 10 26  1  0
 26 27  1  0
  6 28  1  0
 28 29  2  0
 29  3  1  0
 27  7  1  0
 25 14  1  0
 23 18  1  0
M  END
>  <Compound_Key>  (1168) 
37trans

>  <Ki>  (1168) 
1.21

>  <database>  (1168) 
NewLiterature

>  <Document_ChEMBL_ID>  (1168) 
10.1038/s41598-023-39704-w

$$$$

     RDKit          2D

 31 34  0  0  0  0  0  0  0  0999 V2000
   -4.3199   -4.2785    0.0000 C   0  0  0  0  0  0  0  0  0  0  0  0
   -4.3186   -2.7785    0.0000 C   0  0  0  0  0  0  0  0  0  0  0  0
   -5.6170   -2.0273    0.0000 C   0  0  0  0  0  0  0  0  0  0  0  0
   -6.9167   -2.7762    0.0000 C   0  0  0  0  0  0  0  0  0  0  0  0
   -8.2150   -2.0251    0.0000 C   0  0  0  0  0  0  0  0  0  0  0  0
   -8.2137   -0.5251    0.0000 C   0  0  0  0  0  0  0  0  0  0  0  0
   -6.9140    0.2238    0.0000 C   0  0  0  0  0  0  0  0  0  0  0  0
   -6.9127    1.7238    0.0000 O   0  0  0  0  0  0  0  0  0  0  0  0
   -8.2111    2.4749    0.0000 C   0  0  0  0  0  0  0  0  0  0  0  0
   -5.6157   -0.5274    0.0000 C   0  0  0  0  0  0  0  0  0  0  0  0
   -4.3160    0.2215    0.0000 C   0  0  0  0  0  0  0  0  0  0  0  0
   -3.0176   -0.5296    0.0000 C   0  0  0  0  0  0  0  0  0  0  0  0
   -1.7179    0.2192    0.0000 C   0  0  0  0  0  0  0  0  0  0  0  0
   -1.7166    1.7192    0.0000 C   0  0  0  0  0  0  0  0  0  0  0  0
   -0.4169    2.4681    0.0000 C   0  0  0  0  0  0  0  0  0  0  0  0
    0.8815    1.7170    0.0000 C   0  0  0  0  0  0  0  0  0  0  0  0
    2.1812    2.4658    0.0000 C   0  0  0  0  0  0  0  0  0  0  0  0
    3.4796    1.7147    0.0000 N   0  0  0  0  0  0  0  0  0  0  0  0
    3.4783    0.2147    0.0000 C   0  0  0  0  0  0  0  0  0  0  0  0
    4.7766   -0.5364    0.0000 C   0  0  0  0  0  0  0  0  0  0  0  0
    6.0763    0.2124    0.0000 N   0  0  0  0  0  0  0  0  0  0  0  0
    7.3747   -0.5387    0.0000 C   0  0  0  0  0  0  0  0  0  0  0  0
    7.3734   -2.0387    0.0000 C   0  0  0  0  0  0  0  0  0  0  0  0
    8.6718   -2.7898    0.0000 C   0  0  0  0  0  0  0  0  0  0  0  0
    9.9715   -2.0410    0.0000 C   0  0  0  0  0  0  0  0  0  0  0  0
    9.9728   -0.5410    0.0000 C   0  0  0  0  0  0  0  0  0  0  0  0
    8.6744    0.2102    0.0000 C   0  0  0  0  0  0  0  0  0  0  0  0
    6.0776    1.7124    0.0000 C   0  0  0  0  0  0  0  0  0  0  0  0
    4.7793    2.4636    0.0000 C   0  0  0  0  0  0  0  0  0  0  0  0
   -3.0150    2.4704    0.0000 C   0  0  0  0  0  0  0  0  0  0  0  0
   -4.3147    1.7215    0.0000 C   0  0  0  0  0  0  0  0  0  0  0  0
  1  2  1  0
  2  3  1  0
  3  4  2  0
  4  5  1  0
  5  6  2  0
  6  7  1  0
  7  8  1  0
  8  9  1  0
  7 10  2  0
 11 10  1  6
 11 12  1  0
 12 13  1  0
 13 14  1  0
 14 15  1  6
 15 16  1  0
 16 17  1  0
 17 18  1  0
 18 19  1  0
 19 20  1  0
 20 21  1  0
 21 22  1  0
 22 23  1  0
 23 24  1  0
 24 25  1  0
 25 26  1  0
 26 27  1  0
 21 28  1  0
 28 29  1  0
 14 30  1  0
 30 31  1  0
 10  3  1  0
 31 11  1  0
 29 18  1  0
 27 22  1  0
M  END
>  <Compound_Key>  (1169) 
38cis

>  <Ki>  (1169) 
7.92

>  <database>  (1169) 
NewLiterature

>  <Document_ChEMBL_ID>  (1169) 
10.1038/s41598-023-39705-w

$$$$

     RDKit          2D

 31 34  0  0  0  0  0  0  0  0999 V2000
   -4.3199   -4.2785    0.0000 C   0  0  0  0  0  0  0  0  0  0  0  0
   -4.3186   -2.7785    0.0000 C   0  0  0  0  0  0  0  0  0  0  0  0
   -5.6170   -2.0273    0.0000 C   0  0  0  0  0  0  0  0  0  0  0  0
   -6.9167   -2.7762    0.0000 C   0  0  0  0  0  0  0  0  0  0  0  0
   -8.2150   -2.0251    0.0000 C   0  0  0  0  0  0  0  0  0  0  0  0
   -8.2137   -0.5251    0.0000 C   0  0  0  0  0  0  0  0  0  0  0  0
   -6.9140    0.2238    0.0000 C   0  0  0  0  0  0  0  0  0  0  0  0
   -6.9127    1.7238    0.0000 O   0  0  0  0  0  0  0  0  0  0  0  0
   -8.2111    2.4749    0.0000 C   0  0  0  0  0  0  0  0  0  0  0  0
   -5.6157   -0.5274    0.0000 C   0  0  0  0  0  0  0  0  0  0  0  0
   -4.3160    0.2215    0.0000 C   0  0  0  0  0  0  0  0  0  0  0  0
   -3.0176   -0.5296    0.0000 C   0  0  0  0  0  0  0  0  0  0  0  0
   -1.7179    0.2192    0.0000 C   0  0  0  0  0  0  0  0  0  0  0  0
   -1.7166    1.7192    0.0000 C   0  0  0  0  0  0  0  0  0  0  0  0
   -0.4169    2.4681    0.0000 C   0  0  0  0  0  0  0  0  0  0  0  0
    0.8815    1.7170    0.0000 C   0  0  0  0  0  0  0  0  0  0  0  0
    2.1812    2.4658    0.0000 C   0  0  0  0  0  0  0  0  0  0  0  0
    3.4796    1.7147    0.0000 N   0  0  0  0  0  0  0  0  0  0  0  0
    3.4783    0.2147    0.0000 C   0  0  0  0  0  0  0  0  0  0  0  0
    4.7766   -0.5364    0.0000 C   0  0  0  0  0  0  0  0  0  0  0  0
    6.0763    0.2124    0.0000 N   0  0  0  0  0  0  0  0  0  0  0  0
    7.3747   -0.5387    0.0000 C   0  0  0  0  0  0  0  0  0  0  0  0
    7.3734   -2.0387    0.0000 C   0  0  0  0  0  0  0  0  0  0  0  0
    8.6718   -2.7898    0.0000 C   0  0  0  0  0  0  0  0  0  0  0  0
    9.9715   -2.0410    0.0000 C   0  0  0  0  0  0  0  0  0  0  0  0
    9.9728   -0.5410    0.0000 C   0  0  0  0  0  0  0  0  0  0  0  0
    8.6744    0.2102    0.0000 C   0  0  0  0  0  0  0  0  0  0  0  0
    6.0776    1.7124    0.0000 C   0  0  0  0  0  0  0  0  0  0  0  0
    4.7793    2.4636    0.0000 C   0  0  0  0  0  0  0  0  0  0  0  0
   -3.0150    2.4704    0.0000 C   0  0  0  0  0  0  0  0  0  0  0  0
   -4.3147    1.7215    0.0000 C   0  0  0  0  0  0  0  0  0  0  0  0
  1  2  1  0
  2  3  1  0
  3  4  2  0
  4  5  1  0
  5  6  2  0
  6  7  1  0
  7  8  1  0
  8  9  1  0
  7 10  2  0
 11 10  1  6
 11 12  1  0
 12 13  1  0
 13 14  1  0
 14 15  1  1
 15 16  1  0
 16 17  1  0
 17 18  1  0
 18 19  1  0
 19 20  1  0
 20 21  1  0
 21 22  1  0
 22 23  1  0
 23 24  1  0
 24 25  1  0
 25 26  1  0
 26 27  1  0
 21 28  1  0
 28 29  1  0
 14 30  1  0
 30 31  1  0
 10  3  1  0
 31 11  1  0
 29 18  1  0
 27 22  1  0
M  END
>  <Compound_Key>  (1170) 
38trans

>  <Ki>  (1170) 
0.21

>  <database>  (1170) 
NewLiterature

>  <Document_ChEMBL_ID>  (1170) 
10.1038/s41598-023-39706-w

$$$$

     RDKit          2D

 30 32  0  0  0  0  0  0  0  0999 V2000
   -9.2769    1.1560    0.0000 C   0  0  0  0  0  0  0  0  0  0  0  0
   -8.4770   -0.1129    0.0000 O   0  0  0  0  0  0  0  0  0  0  0  0
   -6.9781   -0.0546    0.0000 C   0  0  0  0  0  0  0  0  0  0  0  0
   -6.2792    1.2726    0.0000 C   0  0  0  0  0  0  0  0  0  0  0  0
   -4.7803    1.3309    0.0000 C   0  0  0  0  0  0  0  0  0  0  0  0
   -3.9804    0.0619    0.0000 C   0  0  0  0  0  0  0  0  0  0  0  0
   -4.6794   -1.2653    0.0000 C   0  0  0  0  0  0  0  0  0  0  0  0
   -6.1782   -1.3235    0.0000 C   0  0  0  0  0  0  0  0  0  0  0  0
   -6.8772   -2.6507    0.0000 O   0  0  0  0  0  0  0  0  0  0  0  0
   -6.0773   -3.9196    0.0000 C   0  0  0  0  0  0  0  0  0  0  0  0
   -2.4815    0.1202    0.0000 C   0  0  0  0  0  0  0  0  0  0  0  0
   -1.7826    1.4474    0.0000 N   0  0  0  0  0  0  0  0  0  0  0  0
   -0.2837    1.5057    0.0000 C   0  0  0  0  0  0  0  0  0  0  0  0
    0.5162    0.2367    0.0000 C   0  0  0  0  0  0  0  0  0  0  0  0
    2.0151    0.2950    0.0000 N   0  0  0  0  0  0  0  0  0  0  0  0
    2.8150   -0.9739    0.0000 C   0  0  0  0  0  0  0  0  0  0  0  0
    2.1160   -2.3011    0.0000 O   0  0  0  0  0  0  0  0  0  0  0  0
    4.3138   -0.9156    0.0000 C   0  0  0  0  0  0  0  0  0  0  0  0
    5.1137   -2.1846    0.0000 C   0  0  0  0  0  0  0  0  0  0  0  0
    6.6126   -2.1263    0.0000 C   0  0  0  0  0  0  0  0  0  0  0  0
    7.4125   -3.3952    0.0000 Br  0  0  0  0  0  0  0  0  0  0  0  0
    7.3116   -0.7991    0.0000 C   0  0  0  0  0  0  0  0  0  0  0  0
    6.5117    0.4698    0.0000 C   0  0  0  0  0  0  0  0  0  0  0  0
    7.2106    1.7970    0.0000 O   0  0  0  0  0  0  0  0  0  0  0  0
    8.7095    1.8553    0.0000 C   0  0  0  0  0  0  0  0  0  0  0  0
    5.0128    0.4115    0.0000 C   0  0  0  0  0  0  0  0  0  0  0  0
    4.2129    1.6805    0.0000 O   0  0  0  0  0  0  0  0  0  0  0  0
    4.9119    3.0077    0.0000 C   0  0  0  0  0  0  0  0  0  0  0  0
   -2.5825    2.7163    0.0000 C   0  0  0  0  0  0  0  0  0  0  0  0
   -4.0813    2.6580    0.0000 C   0  0  0  0  0  0  0  0  0  0  0  0
  1  2  1  0
  2  3  1  0
  3  4  2  0
  4  5  1  0
  5  6  2  0
  6  7  1  0
  7  8  2  0
  8  9  1  0
  9 10  1  0
  6 11  1  0
 11 12  1  0
 12 13  1  0
 13 14  1  0
 14 15  1  0
 15 16  1  0
 16 17  2  0
 16 18  1  0
 18 19  2  0
 19 20  1  0
 20 21  1  0
 20 22  2  0
 22 23  1  0
 23 24  1  0
 24 25  1  0
 23 26  2  0
 26 27  1  0
 27 28  1  0
 12 29  1  0
 29 30  1  0
  8  3  1  0
 26 18  1  0
 30  5  1  0
M  END
>  <ChemBL_ID>  (1171) 
CHEMBL64176

>  <Compound_Key>  (1171) 
13b

>  <Ki>  (1171) 
16.4

>  <database>  (1171) 
CHEMBL

>  <Assay_ChEMBL_ID>  (1171) 
CHEMBL808105

>  <Document_ChEMBL_ID>  (1171) 
CHEMBL1146691

$$$$

     RDKit          2D

 23 25  0  0  0  0  0  0  0  0999 V2000
    7.3479   -2.7506    0.0000 C   0  0  0  0  0  0  0  0  0  0  0  0
    7.0641   -1.2777    0.0000 O   0  0  0  0  0  0  0  0  0  0  0  0
    5.6466   -0.7871    0.0000 C   0  0  0  0  0  0  0  0  0  0  0  0
    4.5129   -1.7694    0.0000 C   0  0  0  0  0  0  0  0  0  0  0  0
    3.0955   -1.2787    0.0000 C   0  0  0  0  0  0  0  0  0  0  0  0
    2.8116    0.1942    0.0000 C   0  0  0  0  0  0  0  0  0  0  0  0
    1.3941    0.6848    0.0000 C   0  0  0  0  0  0  0  0  0  0  0  0
    0.2605   -0.2974    0.0000 C   0  0  0  0  0  0  0  0  0  0  0  0
   -1.1570    0.1932    0.0000 C   0  0  0  0  0  0  0  0  0  0  0  0
   -2.2907   -0.7890    0.0000 C   0  0  0  0  0  0  0  0  0  0  0  0
   -3.7081   -0.2984    0.0000 N   0  0  0  0  0  0  0  0  0  0  0  0
   -3.9920    1.1745    0.0000 C   0  0  0  0  0  0  0  0  0  0  0  0
   -5.4095    1.6651    0.0000 C   0  0  0  0  0  0  0  0  0  0  0  0
   -6.5431    0.6829    0.0000 C   0  0  0  0  0  0  0  0  0  0  0  0
   -6.2593   -0.7900    0.0000 C   0  0  0  0  0  0  0  0  0  0  0  0
   -6.4963   -2.2712    0.0000 C   0  0  0  0  0  0  0  0  0  0  0  0
   -7.7591   -0.8138    0.0000 C   0  0  0  0  0  0  0  0  0  0  0  0
   -4.8418   -1.2807    0.0000 C   0  0  0  0  0  0  0  0  0  0  0  0
    1.1103    2.1577    0.0000 C   0  0  0  0  0  0  0  0  0  0  0  0
    2.2439    3.1400    0.0000 C   0  0  0  0  0  0  0  0  0  0  0  0
    3.6614    2.6493    0.0000 C   0  0  0  0  0  0  0  0  0  0  0  0
    3.9453    1.1764    0.0000 C   0  0  0  0  0  0  0  0  0  0  0  0
    5.3628    0.6858    0.0000 C   0  0  0  0  0  0  0  0  0  0  0  0
  1  2  1  0
  2  3  1  0
  3  4  2  0
  4  5  1  0
  5  6  2  0
  6  7  1  0
  7  8  1  0
  8  9  1  0
  9 10  1  0
 10 11  1  0
 11 12  1  0
 12 13  1  0
 13 14  1  0
 14 15  1  0
 15 16  1  0
 15 17  1  0
 15 18  1  0
  7 19  2  0
 19 20  1  0
 20 21  2  0
 21 22  1  0
 22 23  2  0
 23  3  1  0
 22  6  1  0
 18 11  1  0
M  END
>  <Compound_Key>  (1172) 
39

>  <Ki>  (1172) 
238.0

>  <database>  (1172) 
NewLiterature

>  <Document_ChEMBL_ID>  (1172) 
10.1038/s41598-023-39709-w

$$$$

     RDKit          2D

 25 28  0  0  0  0  0  0  0  0999 V2000
    2.5134   -2.8233    0.0000 C   0  0  0  0  0  0  0  0  0  0  0  0
    1.1714   -2.1532    0.0000 N   0  0  0  0  0  0  0  0  0  0  0  0
   -0.0799   -2.9803    0.0000 C   0  0  0  0  0  0  0  0  0  0  0  0
   -1.4219   -2.3101    0.0000 C   0  0  0  0  0  0  0  0  0  0  0  0
   -1.5125   -0.8129    0.0000 C   0  0  0  0  0  0  0  0  0  0  0  0
   -2.8545   -0.1427    0.0000 C   0  0  0  0  0  0  0  0  0  0  0  0
   -2.9451    1.3546    0.0000 C   0  0  0  0  0  0  0  0  0  0  0  0
   -4.2871    2.0247    0.0000 C   0  0  0  0  0  0  0  0  0  0  0  0
   -5.5384    1.1976    0.0000 C   0  0  0  0  0  0  0  0  0  0  0  0
   -5.4478   -0.2997    0.0000 C   0  0  0  0  0  0  0  0  0  0  0  0
   -6.6992   -1.1268    0.0000 O   0  0  0  0  0  0  0  0  0  0  0  0
   -4.1058   -0.9698    0.0000 C   0  0  0  0  0  0  0  0  0  0  0  0
   -1.6031    0.6844    0.0000 C   0  0  0  0  0  0  0  0  0  0  0  0
   -0.3518    1.5115    0.0000 C   0  0  0  0  0  0  0  0  0  0  0  0
   -0.4424    3.0088    0.0000 O   0  0  0  0  0  0  0  0  0  0  0  0
    0.9902    0.8414    0.0000 C   0  0  0  0  0  0  0  0  0  0  0  0
    2.2416    1.6685    0.0000 C   0  0  0  0  0  0  0  0  0  0  0  0
    3.5835    0.9983    0.0000 C   0  0  0  0  0  0  0  0  0  0  0  0
    3.6742   -0.4990    0.0000 C   0  0  0  0  0  0  0  0  0  0  0  0
    5.0161   -1.1691    0.0000 C   0  0  0  0  0  0  0  0  0  0  0  0
    6.2675   -0.3420    0.0000 C   0  0  0  0  0  0  0  0  0  0  0  0
    6.1769    1.1553    0.0000 C   0  0  0  0  0  0  0  0  0  0  0  0
    4.8349    1.8254    0.0000 C   0  0  0  0  0  0  0  0  0  0  0  0
    1.0808   -0.6559    0.0000 C   0  0  0  0  0  0  0  0  0  0  0  0
   -0.2611    0.0143    0.0000 C   0  0  0  0  0  0  0  0  0  0  0  0
  1  2  1  0
  2  3  1  0
  3  4  1  0
  4  5  1  0
  5  6  1  1
  6  7  2  0
  7  8  1  0
  8  9  2  0
  9 10  1  0
 10 11  1  0
 10 12  2  0
  5 13  1  0
 13 14  1  0
 14 15  2  0
 14 16  1  0
 16 17  2  0
 17 18  1  0
 18 19  2  0
 19 20  1  0
 20 21  2  0
 21 22  1  0
 22 23  2  0
 16 24  1  0
 24 25  1  0
 24  2  1  1
 25  5  1  0
 12  6  1  0
 23 18  1  0
M  END
>  <Compound_Key>  (1173) 
CB-64D(1)

>  <Ki>  (1173) 
16.5

>  <database>  (1173) 
NewLiterature

>  <Document_ChEMBL_ID>  (1173) 
10.1016/j.bioorg.2021.105163

$$$$

     RDKit          2D

 27 30  0  0  0  0  0  0  0  0999 V2000
    1.9063   -2.8930    0.0000 C   0  0  0  0  0  0  0  0  0  0  0  0
    0.5762   -2.1995    0.0000 N   0  0  0  0  0  0  0  0  0  0  0  0
   -0.6894   -3.0046    0.0000 C   0  0  0  0  0  0  0  0  0  0  0  0
   -2.0195   -2.3111    0.0000 C   0  0  0  0  0  0  0  0  0  0  0  0
   -2.0840   -0.8125    0.0000 C   0  0  0  0  0  0  0  0  0  0  0  0
   -3.4140   -0.1191    0.0000 C   0  0  0  0  0  0  0  0  0  0  0  0
   -3.4785    1.3796    0.0000 C   0  0  0  0  0  0  0  0  0  0  0  0
   -4.8086    2.0730    0.0000 C   0  0  0  0  0  0  0  0  0  0  0  0
   -6.0742    1.2679    0.0000 C   0  0  0  0  0  0  0  0  0  0  0  0
   -6.0097   -0.2307    0.0000 C   0  0  0  0  0  0  0  0  0  0  0  0
   -7.2753   -1.0359    0.0000 O   0  0  0  0  0  0  0  0  0  0  0  0
   -4.6796   -0.9242    0.0000 C   0  0  0  0  0  0  0  0  0  0  0  0
   -2.1484    0.6861    0.0000 C   0  0  0  0  0  0  0  0  0  0  0  0
   -0.8828    1.4912    0.0000 C   0  0  0  0  0  0  0  0  0  0  0  0
   -0.9473    2.9898    0.0000 O   0  0  0  0  0  0  0  0  0  0  0  0
    0.4473    0.7977    0.0000 C   0  0  0  0  0  0  0  0  0  0  0  0
    1.7129    1.6029    0.0000 C   0  0  0  0  0  0  0  0  0  0  0  0
    3.0429    0.9094    0.0000 C   0  0  0  0  0  0  0  0  0  0  0  0
    3.1074   -0.5892    0.0000 C   0  0  0  0  0  0  0  0  0  0  0  0
    4.4375   -1.2827    0.0000 C   0  0  0  0  0  0  0  0  0  0  0  0
    5.7031   -0.4776    0.0000 C   0  0  0  0  0  0  0  0  0  0  0  0
    7.0331   -1.1710    0.0000 Cl  0  0  0  0  0  0  0  0  0  0  0  0
    5.6386    1.0211    0.0000 C   0  0  0  0  0  0  0  0  0  0  0  0
    6.9042    1.8262    0.0000 Cl  0  0  0  0  0  0  0  0  0  0  0  0
    4.3085    1.7145    0.0000 C   0  0  0  0  0  0  0  0  0  0  0  0
    0.5117   -0.7009    0.0000 C   0  0  0  0  0  0  0  0  0  0  0  0
   -0.8184   -0.0074    0.0000 C   0  0  0  0  0  0  0  0  0  0  0  0
  1  2  1  0
  2  3  1  0
  3  4  1  0
  4  5  1  0
  5  6  1  1
  6  7  2  0
  7  8  1  0
  8  9  2  0
  9 10  1  0
 10 11  1  0
 10 12  2  0
  5 13  1  0
 13 14  1  0
 14 15  2  0
 14 16  1  0
 16 17  2  0
 17 18  1  0
 18 19  2  0
 19 20  1  0
 20 21  2  0
 21 22  1  0
 21 23  1  0
 23 24  1  0
 23 25  2  0
 16 26  1  0
 26 27  1  0
 26  2  1  1
 27  5  1  0
 12  6  1  0
 25 18  1  0
M  END
>  <Compound_Key>  (1174) 
CB-184(2)

>  <Ki>  (1174) 
13.4

>  <database>  (1174) 
NewLiterature

>  <Document_ChEMBL_ID>  (1174) 
10.1016/j.bioorg.2021.105163

$$$$

     RDKit          2D

 29 31  0  0  0  0  0  0  0  0999 V2000
   -9.3676    0.1831    0.0000 C   0  0  0  0  0  0  0  0  0  0  0  0
   -8.3286   -0.8988    0.0000 O   0  0  0  0  0  0  0  0  0  0  0  0
   -6.8721   -0.5399    0.0000 C   0  0  0  0  0  0  0  0  0  0  0  0
   -6.4547    0.9008    0.0000 C   0  0  0  0  0  0  0  0  0  0  0  0
   -4.9982    1.2597    0.0000 C   0  0  0  0  0  0  0  0  0  0  0  0
   -3.9592    0.1778    0.0000 C   0  0  0  0  0  0  0  0  0  0  0  0
   -4.3767   -1.2630    0.0000 C   0  0  0  0  0  0  0  0  0  0  0  0
   -5.8331   -1.6218    0.0000 C   0  0  0  0  0  0  0  0  0  0  0  0
   -6.2505   -3.0626    0.0000 O   0  0  0  0  0  0  0  0  0  0  0  0
   -5.2115   -4.1445    0.0000 C   0  0  0  0  0  0  0  0  0  0  0  0
   -2.5028    0.5367    0.0000 C   0  0  0  0  0  0  0  0  0  0  0  0
   -2.0854    1.9774    0.0000 N   0  0  0  0  0  0  0  0  0  0  0  0
   -0.6289    2.3363    0.0000 C   0  0  0  0  0  0  0  0  0  0  0  0
    0.4101    1.2544    0.0000 C   0  0  0  0  0  0  0  0  0  0  0  0
    1.8665    1.6133    0.0000 C   0  0  0  0  0  0  0  0  0  0  0  0
    2.9055    0.5314    0.0000 N   0  0  0  0  0  0  0  0  0  0  0  0
    4.3620    0.8903    0.0000 C   0  0  0  0  0  0  0  0  0  0  0  0
    4.7794    2.3310    0.0000 O   0  0  0  0  0  0  0  0  0  0  0  0
    5.4010   -0.1916    0.0000 C   0  0  0  0  0  0  0  0  0  0  0  0
    4.9835   -1.6324    0.0000 C   0  0  0  0  0  0  0  0  0  0  0  0
    6.0226   -2.7142    0.0000 C   0  0  0  0  0  0  0  0  0  0  0  0
    5.6051   -4.1550    0.0000 C   0  0  0  0  0  0  0  0  0  0  0  0
    7.4790   -2.3554    0.0000 C   0  0  0  0  0  0  0  0  0  0  0  0
    7.8964   -0.9146    0.0000 C   0  0  0  0  0  0  0  0  0  0  0  0
    6.8574    0.1673    0.0000 C   0  0  0  0  0  0  0  0  0  0  0  0
    7.2748    1.6080    0.0000 O   0  0  0  0  0  0  0  0  0  0  0  0
    8.7313    1.9669    0.0000 C   0  0  0  0  0  0  0  0  0  0  0  0
   -3.1244    3.0593    0.0000 C   0  0  0  0  0  0  0  0  0  0  0  0
   -4.5808    2.7004    0.0000 C   0  0  0  0  0  0  0  0  0  0  0  0
  1  2  1  0
  2  3  1  0
  3  4  2  0
  4  5  1  0
  5  6  2  0
  6  7  1  0
  7  8  2  0
  8  9  1  0
  9 10  1  0
  6 11  1  0
 11 12  1  0
 12 13  1  0
 13 14  1  0
 14 15  1  0
 15 16  1  0
 16 17  1  0
 17 18  2  0
 17 19  1  0
 19 20  2  0
 20 21  1  0
 21 22  1  0
 21 23  2  0
 23 24  1  0
 24 25  2  0
 25 26  1  0
 26 27  1  0
 12 28  1  0
 28 29  1  0
  8  3  1  0
 25 19  1  0
 29  5  1  0
M  END
>  <ChemBL_ID>  (1175) 
CHEMBL1851743

>  <Ki>  (1175) 
2.63

>  <database>  (1175) 
SRSLDB

$$$$

     RDKit          2D

 31 33  0  0  0  0  0  0  0  0999 V2000
  -10.0076    0.0428    0.0000 C   0  0  0  0  0  0  0  0  0  0  0  0
   -8.9460   -1.0170    0.0000 O   0  0  0  0  0  0  0  0  0  0  0  0
   -7.4975   -0.6275    0.0000 C   0  0  0  0  0  0  0  0  0  0  0  0
   -7.1105    0.8218    0.0000 C   0  0  0  0  0  0  0  0  0  0  0  0
   -5.6620    1.2113    0.0000 C   0  0  0  0  0  0  0  0  0  0  0  0
   -4.6004    0.1516    0.0000 C   0  0  0  0  0  0  0  0  0  0  0  0
   -4.9873   -1.2977    0.0000 C   0  0  0  0  0  0  0  0  0  0  0  0
   -6.4359   -1.6872    0.0000 C   0  0  0  0  0  0  0  0  0  0  0  0
   -6.8228   -3.1364    0.0000 O   0  0  0  0  0  0  0  0  0  0  0  0
   -5.7612   -4.1961    0.0000 C   0  0  0  0  0  0  0  0  0  0  0  0
   -3.1518    0.5411    0.0000 C   0  0  0  0  0  0  0  0  0  0  0  0
   -2.7649    1.9903    0.0000 N   0  0  0  0  0  0  0  0  0  0  0  0
   -1.3163    2.3798    0.0000 C   0  0  0  0  0  0  0  0  0  0  0  0
   -0.2547    1.3201    0.0000 C   0  0  0  0  0  0  0  0  0  0  0  0
    1.1938    1.7096    0.0000 C   0  0  0  0  0  0  0  0  0  0  0  0
    2.2554    0.6499    0.0000 N   0  0  0  0  0  0  0  0  0  0  0  0
    3.7039    1.0394    0.0000 C   0  0  0  0  0  0  0  0  0  0  0  0
    4.0909    2.4886    0.0000 O   0  0  0  0  0  0  0  0  0  0  0  0
    4.7655   -0.0204    0.0000 C   0  0  0  0  0  0  0  0  0  0  0  0
    4.3786   -1.4696    0.0000 C   0  0  0  0  0  0  0  0  0  0  0  0
    5.4402   -2.5293    0.0000 C   0  0  0  0  0  0  0  0  0  0  0  0
    5.0532   -3.9785    0.0000 Br  0  0  0  0  0  0  0  0  0  0  0  0
    6.8887   -2.1398    0.0000 C   0  0  0  0  0  0  0  0  0  0  0  0
    7.2757   -0.6906    0.0000 C   0  0  0  0  0  0  0  0  0  0  0  0
    8.7242   -0.3011    0.0000 O   0  0  0  0  0  0  0  0  0  0  0  0
    9.7858   -1.3608    0.0000 C   0  0  0  0  0  0  0  0  0  0  0  0
    6.2141    0.3691    0.0000 C   0  0  0  0  0  0  0  0  0  0  0  0
    6.6010    1.8184    0.0000 O   0  0  0  0  0  0  0  0  0  0  0  0
    8.0496    2.2079    0.0000 C   0  0  0  0  0  0  0  0  0  0  0  0
   -3.8265    3.0500    0.0000 C   0  0  0  0  0  0  0  0  0  0  0  0
   -5.2750    2.6605    0.0000 C   0  0  0  0  0  0  0  0  0  0  0  0
  1  2  1  0
  2  3  1  0
  3  4  2  0
  4  5  1  0
  5  6  2  0
  6  7  1  0
  7  8  2  0
  8  9  1  0
  9 10  1  0
  6 11  1  0
 11 12  1  0
 12 13  1  0
 13 14  1  0
 14 15  1  0
 15 16  1  0
 16 17  1  0
 17 18  2  0
 17 19  1  0
 19 20  2  0
 20 21  1  0
 21 22  1  0
 21 23  2  0
 23 24  1  0
 24 25  1  0
 25 26  1  0
 24 27  2  0
 27 28  1  0
 28 29  1  0
 12 30  1  0
 30 31  1  0
  8  3  1  0
 27 19  1  0
 31  5  1  0
M  END
>  <ChemBL_ID>  (1176) 
CHEMBL1852366

>  <Ki>  (1176) 
12.9

>  <database>  (1176) 
SRSLDB

$$$$

     RDKit          2D

 34 38  0  0  0  0  0  0  0  0999 V2000
  -10.7524    4.5769    0.0000 C   0  0  0  0  0  0  0  0  0  0  0  0
   -9.3773    3.9778    0.0000 O   0  0  0  0  0  0  0  0  0  0  0  0
   -9.2086    2.4873    0.0000 C   0  0  0  0  0  0  0  0  0  0  0  0
  -10.4151    1.5960    0.0000 O   0  0  0  0  0  0  0  0  0  0  0  0
   -7.8335    1.8881    0.0000 C   0  0  0  0  0  0  0  0  0  0  0  0
   -7.6648    0.3976    0.0000 C   0  0  0  0  0  0  0  0  0  0  0  0
   -6.2897   -0.2015    0.0000 N   0  0  0  0  0  0  0  0  0  0  0  0
   -5.0832    0.6898    0.0000 C   0  0  0  0  0  0  0  0  0  0  0  0
   -3.7081    0.0906    0.0000 C   0  0  0  0  0  0  0  0  0  0  0  0
   -3.5394   -1.3999    0.0000 N   0  0  0  0  0  0  0  0  0  0  0  0
   -2.1643   -1.9990    0.0000 C   0  0  0  0  0  0  0  0  0  0  0  0
   -1.9956   -3.4895    0.0000 C   0  0  0  0  0  0  0  0  0  0  0  0
   -0.6204   -4.0887    0.0000 C   0  0  0  0  0  0  0  0  0  0  0  0
    0.5860   -3.1974    0.0000 C   0  0  0  0  0  0  0  0  0  0  0  0
    0.4173   -1.7069    0.0000 C   0  0  0  0  0  0  0  0  0  0  0  0
   -0.9578   -1.1077    0.0000 C   0  0  0  0  0  0  0  0  0  0  0  0
    1.7828   -1.0859    0.0000 C   0  0  0  0  0  0  0  0  0  0  0  0
    2.7953   -2.1926    0.0000 C   0  0  0  0  0  0  0  0  0  0  0  0
    2.0557   -3.4975    0.0000 C   0  0  0  0  0  0  0  0  0  0  0  0
    3.5654   -3.4988    0.0000 C   0  0  0  0  0  0  0  0  0  0  0  0
    4.1646   -2.1237    0.0000 C   0  0  0  0  0  0  0  0  0  0  0  0
    3.2732   -0.9172    0.0000 N   0  0  0  0  0  0  0  0  0  0  0  0
    3.8724    0.4579    0.0000 C   0  0  0  0  0  0  0  0  0  0  0  0
    2.9811    1.6644    0.0000 O   0  0  0  0  0  0  0  0  0  0  0  0
    5.3629    0.6266    0.0000 O   0  0  0  0  0  0  0  0  0  0  0  0
    5.9621    2.0017    0.0000 C   0  0  0  0  0  0  0  0  0  0  0  0
    7.4525    2.1704    0.0000 C   0  0  0  0  0  0  0  0  0  0  0  0
    8.3439    0.9640    0.0000 C   0  0  0  0  0  0  0  0  0  0  0  0
    9.8344    1.1326    0.0000 C   0  0  0  0  0  0  0  0  0  0  0  0
   10.4335    2.5078    0.0000 C   0  0  0  0  0  0  0  0  0  0  0  0
    9.5422    3.7142    0.0000 C   0  0  0  0  0  0  0  0  0  0  0  0
    8.0517    3.5456    0.0000 C   0  0  0  0  0  0  0  0  0  0  0  0
   -4.7459   -2.2912    0.0000 C   0  0  0  0  0  0  0  0  0  0  0  0
   -6.1210   -1.6920    0.0000 C   0  0  0  0  0  0  0  0  0  0  0  0
  1  2  1  0
  2  3  1  0
  3  4  2  0
  3  5  1  0
  5  6  1  0
  6  7  1  0
  7  8  1  0
  8  9  1  0
  9 10  1  0
 10 11  1  0
 11 12  2  0
 12 13  1  0
 13 14  2  0
 14 15  1  0
 15 16  2  0
 15 17  1  0
 17 18  1  0
 18 19  1  0
 19 20  1  0
 20 21  1  0
 21 22  1  0
 22 23  1  0
 23 24  2  0
 23 25  1  0
 25 26  1  0
 26 27  1  0
 27 28  2  0
 28 29  1  0
 29 30  2  0
 30 31  1  0
 31 32  2  0
 10 33  1  0
 33 34  1  0
 34  7  1  0
 16 11  1  0
 22 17  1  0
 32 27  1  0
 19 14  1  0
M  END
>  <Compound_Key>  (1177) 
7

>  <Ki>  (1177) 
8.8

>  <database>  (1177) 
NewLiterature

>  <Document_ChEMBL_ID>  (1177) 
10.1016/j.bioorg.2021.105163

$$$$

     RDKit          2D

 35 39  0  0  0  0  0  0  0  0999 V2000
  -10.9087    5.3191    0.0000 C   0  0  0  0  0  0  0  0  0  0  0  0
  -10.6607    3.8397    0.0000 C   0  0  0  0  0  0  0  0  0  0  0  0
   -9.2555    3.3148    0.0000 O   0  0  0  0  0  0  0  0  0  0  0  0
   -9.0075    1.8355    0.0000 C   0  0  0  0  0  0  0  0  0  0  0  0
  -10.1646    0.8810    0.0000 O   0  0  0  0  0  0  0  0  0  0  0  0
   -7.6023    1.3106    0.0000 C   0  0  0  0  0  0  0  0  0  0  0  0
   -7.3543   -0.1687    0.0000 C   0  0  0  0  0  0  0  0  0  0  0  0
   -5.9491   -0.6936    0.0000 N   0  0  0  0  0  0  0  0  0  0  0  0
   -4.7919    0.2609    0.0000 C   0  0  0  0  0  0  0  0  0  0  0  0
   -3.3868   -0.2640    0.0000 C   0  0  0  0  0  0  0  0  0  0  0  0
   -3.1387   -1.7433    0.0000 N   0  0  0  0  0  0  0  0  0  0  0  0
   -1.7336   -2.2682    0.0000 C   0  0  0  0  0  0  0  0  0  0  0  0
   -1.4855   -3.7476    0.0000 C   0  0  0  0  0  0  0  0  0  0  0  0
   -0.0804   -4.2724    0.0000 C   0  0  0  0  0  0  0  0  0  0  0  0
    1.0768   -3.3179    0.0000 C   0  0  0  0  0  0  0  0  0  0  0  0
    0.8287   -1.8386    0.0000 C   0  0  0  0  0  0  0  0  0  0  0  0
   -0.5764   -1.3137    0.0000 C   0  0  0  0  0  0  0  0  0  0  0  0
    2.1590   -1.1456    0.0000 C   0  0  0  0  0  0  0  0  0  0  0  0
    3.2293   -2.1966    0.0000 C   0  0  0  0  0  0  0  0  0  0  0  0
    2.5604   -3.5392    0.0000 C   0  0  0  0  0  0  0  0  0  0  0  0
    4.0680   -3.4598    0.0000 C   0  0  0  0  0  0  0  0  0  0  0  0
    4.5929   -2.0547    0.0000 C   0  0  0  0  0  0  0  0  0  0  0  0
    3.6384   -0.8975    0.0000 N   0  0  0  0  0  0  0  0  0  0  0  0
    4.1633    0.5077    0.0000 C   0  0  0  0  0  0  0  0  0  0  0  0
    3.2088    1.6648    0.0000 O   0  0  0  0  0  0  0  0  0  0  0  0
    5.6426    0.7557    0.0000 O   0  0  0  0  0  0  0  0  0  0  0  0
    6.1675    2.1609    0.0000 C   0  0  0  0  0  0  0  0  0  0  0  0
    7.6468    2.4089    0.0000 C   0  0  0  0  0  0  0  0  0  0  0  0
    8.6013    1.2518    0.0000 C   0  0  0  0  0  0  0  0  0  0  0  0
   10.0807    1.4998    0.0000 C   0  0  0  0  0  0  0  0  0  0  0  0
   10.6055    2.9050    0.0000 C   0  0  0  0  0  0  0  0  0  0  0  0
    9.6511    4.0621    0.0000 C   0  0  0  0  0  0  0  0  0  0  0  0
    8.1717    3.8141    0.0000 C   0  0  0  0  0  0  0  0  0  0  0  0
   -4.2959   -2.6978    0.0000 C   0  0  0  0  0  0  0  0  0  0  0  0
   -5.7010   -2.1729    0.0000 C   0  0  0  0  0  0  0  0  0  0  0  0
  1  2  1  0
  2  3  1  0
  3  4  1  0
  4  5  2  0
  4  6  1  0
  6  7  1  0
  7  8  1  0
  8  9  1  0
  9 10  1  0
 10 11  1  0
 11 12  1  0
 12 13  2  0
 13 14  1  0
 14 15  2  0
 15 16  1  0
 16 17  2  0
 16 18  1  0
 18 19  1  0
 19 20  1  0
 20 21  1  0
 21 22  1  0
 22 23  1  0
 23 24  1  0
 24 25  2  0
 24 26  1  0
 26 27  1  0
 27 28  1  0
 28 29  2  0
 29 30  1  0
 30 31  2  0
 31 32  1  0
 32 33  2  0
 11 34  1  0
 34 35  1  0
 35  8  1  0
 17 12  1  0
 23 18  1  0
 33 28  1  0
 20 15  1  0
M  END
>  <Compound_Key>  (1178) 
8

>  <Ki>  (1178) 
23.8

>  <database>  (1178) 
NewLiterature

>  <Document_ChEMBL_ID>  (1178) 
10.1016/j.bioorg.2021.105163

$$$$

     RDKit          2D

 24 27  0  0  0  0  0  0  0  0999 V2000
   -7.7524   -2.5268    0.0000 C   0  0  0  0  0  0  0  0  0  0  0  0
   -6.2525   -2.5078    0.0000 C   0  0  0  0  0  0  0  0  0  0  0  0
   -5.5190   -1.1993    0.0000 O   0  0  0  0  0  0  0  0  0  0  0  0
   -4.0192   -1.1803    0.0000 C   0  0  0  0  0  0  0  0  0  0  0  0
   -3.2528   -2.4698    0.0000 O   0  0  0  0  0  0  0  0  0  0  0  0
   -3.2857    0.1281    0.0000 N   0  0  0  0  0  0  0  0  0  0  0  0
   -4.0521    1.4175    0.0000 C   0  0  0  0  0  0  0  0  0  0  0  0
   -3.3186    2.7260    0.0000 C   0  0  0  0  0  0  0  0  0  0  0  0
   -1.8187    2.7449    0.0000 C   0  0  0  0  0  0  0  0  0  0  0  0
   -1.0523    1.4555    0.0000 C   0  0  0  0  0  0  0  0  0  0  0  0
   -1.7858    0.1471    0.0000 C   0  0  0  0  0  0  0  0  0  0  0  0
   -0.3652    0.6286    0.0000 C   0  0  0  0  0  0  0  0  0  0  0  0
    0.9432   -0.1049    0.0000 C   0  0  0  0  0  0  0  0  0  0  0  0
    2.2327    0.6615    0.0000 C   0  0  0  0  0  0  0  0  0  0  0  0
    3.5411   -0.0720    0.0000 N   0  0  0  0  0  0  0  0  0  0  0  0
    3.5601   -1.5718    0.0000 C   0  0  0  0  0  0  0  0  0  0  0  0
    4.8685   -2.3053    0.0000 C   0  0  0  0  0  0  0  0  0  0  0  0
    6.1580   -1.5390    0.0000 N   0  0  0  0  0  0  0  0  0  0  0  0
    7.4664   -2.2724    0.0000 C   0  0  0  0  0  0  0  0  0  0  0  0
    6.1390   -0.0391    0.0000 C   0  0  0  0  0  0  0  0  0  0  0  0
    4.8305    0.6944    0.0000 C   0  0  0  0  0  0  0  0  0  0  0  0
    2.2137    2.1614    0.0000 C   0  0  0  0  0  0  0  0  0  0  0  0
    0.9053    2.8949    0.0000 C   0  0  0  0  0  0  0  0  0  0  0  0
   -0.3842    2.1285    0.0000 C   0  0  0  0  0  0  0  0  0  0  0  0
  1  2  1  0
  2  3  1  0
  3  4  1  0
  4  5  2  0
  4  6  1  0
  6  7  1  0
  7  8  1  0
  8  9  1  0
  9 10  1  0
 10 11  1  0
 11 12  1  0
 12 13  2  0
 13 14  1  0
 14 15  1  0
 15 16  1  0
 16 17  1  0
 17 18  1  0
 18 19  1  0
 18 20  1  0
 20 21  1  0
 14 22  2  0
 22 23  1  0
 23 24  2  0
 11  6  1  0
 24 12  1  0
 24  9  1  0
 21 15  1  0
M  END
>  <Compound_Key>  (1179) 
SAS-0132(9)

>  <Ki>  (1179) 
90.0

>  <database>  (1179) 
NewLiterature

>  <Document_ChEMBL_ID>  (1179) 
10.1016/j.bioorg.2021.105163

$$$$

     RDKit          2D

 27 31  0  0  0  0  0  0  0  0999 V2000
   -5.5331    3.8981    0.0000 Cl  0  0  0  0  0  0  0  0  0  0  0  0
   -4.3918    2.9247    0.0000 C   0  0  0  0  0  0  0  0  0  0  0  0
   -2.9782    3.4264    0.0000 C   0  0  0  0  0  0  0  0  0  0  0  0
   -1.8369    2.4530    0.0000 C   0  0  0  0  0  0  0  0  0  0  0  0
   -0.4233    2.9547    0.0000 Cl  0  0  0  0  0  0  0  0  0  0  0  0
   -2.1093    0.9779    0.0000 C   0  0  0  0  0  0  0  0  0  0  0  0
   -3.5229    0.4763    0.0000 C   0  0  0  0  0  0  0  0  0  0  0  0
   -3.7953   -0.9988    0.0000 C   0  0  0  0  0  0  0  0  0  0  0  0
   -2.6540   -1.9722    0.0000 N   0  0  0  0  0  0  0  0  0  0  0  0
   -2.9263   -3.4473    0.0000 C   0  0  0  0  0  0  0  0  0  0  0  0
   -1.7851   -4.4207    0.0000 C   0  0  0  0  0  0  0  0  0  0  0  0
   -0.3714   -3.9190    0.0000 C   0  0  0  0  0  0  0  0  0  0  0  0
   -0.0991   -2.4439    0.0000 C   0  0  0  0  0  0  0  0  0  0  0  0
   -1.2404   -1.4705    0.0000 C   0  0  0  0  0  0  0  0  0  0  0  0
    0.2591   -1.4303    0.0000 C   0  0  0  0  0  0  0  0  0  0  0  0
    1.2325   -0.2890    0.0000 C   0  0  0  0  0  0  0  0  0  0  0  0
    2.7076   -0.5613    0.0000 C   0  0  0  0  0  0  0  0  0  0  0  0
    3.6810    0.5799    0.0000 N   0  0  0  0  0  0  0  0  0  0  0  0
    5.1560    0.3076    0.0000 C   0  0  0  0  0  0  0  0  0  0  0  0
    6.1294    1.4488    0.0000 C   0  0  0  0  0  0  0  0  0  0  0  0
    5.6278    2.8625    0.0000 O   0  0  0  0  0  0  0  0  0  0  0  0
    4.1527    3.1348    0.0000 C   0  0  0  0  0  0  0  0  0  0  0  0
    3.1793    1.9936    0.0000 C   0  0  0  0  0  0  0  0  0  0  0  0
    3.2092   -1.9750    0.0000 C   0  0  0  0  0  0  0  0  0  0  0  0
    2.2358   -3.1162    0.0000 C   0  0  0  0  0  0  0  0  0  0  0  0
    0.7608   -2.8439    0.0000 C   0  0  0  0  0  0  0  0  0  0  0  0
   -4.6642    1.4497    0.0000 C   0  0  0  0  0  0  0  0  0  0  0  0
  1  2  1  0
  2  3  2  0
  3  4  1  0
  4  5  1  0
  4  6  2  0
  6  7  1  0
  7  8  1  0
  8  9  1  0
  9 10  1  0
 10 11  1  0
 11 12  1  0
 12 13  1  0
 13 14  1  0
 14 15  1  0
 15 16  2  0
 16 17  1  0
 17 18  1  0
 18 19  1  0
 19 20  1  0
 20 21  1  0
 21 22  1  0
 22 23  1  0
 17 24  2  0
 24 25  1  0
 25 26  2  0
  7 27  2  0
 27  2  1  0
 14  9  1  0
 26 15  1  0
 26 12  1  0
 23 18  1  0
M  END
>  <Compound_Key>  (1180) 
DKR-1005(10)

>  <Ki>  (1180) 
157.0

>  <database>  (1180) 
NewLiterature

>  <Document_ChEMBL_ID>  (1180) 
10.1016/j.bioorg.2021.105163

$$$$

     RDKit          2D

 28 32  0  0  0  0  0  0  0  0999 V2000
    8.0412    1.7047    0.0000 F   0  0  0  0  0  0  0  0  0  0  0  0
    6.6650    1.1080    0.0000 C   0  0  0  0  0  0  0  0  0  0  0  0
    7.2617   -0.2682    0.0000 F   0  0  0  0  0  0  0  0  0  0  0  0
    6.0683    2.4842    0.0000 F   0  0  0  0  0  0  0  0  0  0  0  0
    5.2888    0.5113    0.0000 C   0  0  0  0  0  0  0  0  0  0  0  0
    5.1175   -0.9789    0.0000 C   0  0  0  0  0  0  0  0  0  0  0  0
    3.7413   -1.5756    0.0000 C   0  0  0  0  0  0  0  0  0  0  0  0
    2.5364   -0.6821    0.0000 C   0  0  0  0  0  0  0  0  0  0  0  0
    1.1602   -1.2789    0.0000 C   0  0  0  0  0  0  0  0  0  0  0  0
    0.9889   -2.7690    0.0000 C   0  0  0  0  0  0  0  0  0  0  0  0
   -0.3873   -3.3658    0.0000 C   0  0  0  0  0  0  0  0  0  0  0  0
   -1.5922   -2.4723    0.0000 C   0  0  0  0  0  0  0  0  0  0  0  0
   -1.4209   -0.9821    0.0000 C   0  0  0  0  0  0  0  0  0  0  0  0
   -0.0447   -0.3854    0.0000 C   0  0  0  0  0  0  0  0  0  0  0  0
   -2.7537   -0.0846    0.0000 C   0  0  0  0  0  0  0  0  0  0  0  0
   -2.2615   -1.5016    0.0000 C   0  0  0  0  0  0  0  0  0  0  0  0
   -3.0624   -2.7698    0.0000 C   0  0  0  0  0  0  0  0  0  0  0  0
   -4.5533   -2.9344    0.0000 C   0  0  0  0  0  0  0  0  0  0  0  0
   -5.6116   -1.8713    0.0000 C   0  0  0  0  0  0  0  0  0  0  0  0
   -5.4403   -0.3812    0.0000 C   0  0  0  0  0  0  0  0  0  0  0  0
   -4.1684    0.4140    0.0000 N   0  0  0  0  0  0  0  0  0  0  0  0
   -4.3329    1.9049    0.0000 C   0  0  0  0  0  0  0  0  0  0  0  0
   -5.6359    2.6482    0.0000 C   0  0  0  0  0  0  0  0  0  0  0  0
   -5.3317    4.1170    0.0000 C   0  0  0  0  0  0  0  0  0  0  0  0
   -3.8407    4.2816    0.0000 C   0  0  0  0  0  0  0  0  0  0  0  0
   -3.2235    2.9144    0.0000 C   0  0  0  0  0  0  0  0  0  0  0  0
    2.7077    0.8080    0.0000 C   0  0  0  0  0  0  0  0  0  0  0  0
    4.0839    1.4048    0.0000 C   0  0  0  0  0  0  0  0  0  0  0  0
  1  2  1  0
  2  3  1  0
  2  4  1  0
  2  5  1  0
  5  6  2  0
  6  7  1  0
  7  8  2  0
  8  9  1  0
  9 10  2  0
 10 11  1  0
 11 12  2  0
 12 13  1  0
 13 14  2  0
 13 15  1  0
 15 16  1  0
 16 17  1  0
 17 18  1  0
 18 19  1  0
 19 20  1  0
 20 21  1  0
 21 22  1  0
 22 23  1  0
 23 24  1  0
 24 25  1  0
 25 26  1  0
  8 27  1  0
 27 28  2  0
 28  5  1  0
 14  9  1  0
 21 15  1  0
 26 22  1  0
 17 12  1  0
M  END
>  <Compound_Key>  (1181) 
DKR-1051(11)

>  <Ki>  (1181) 
61.0

>  <database>  (1181) 
NewLiterature

>  <Document_ChEMBL_ID>  (1181) 
10.1016/j.bioorg.2021.105163

$$$$

     RDKit          2D

 32 36  0  0  0  0  0  0  0  0999 V2000
    7.8997    1.0302    0.0000 F   0  0  0  0  0  0  0  0  0  0  0  0
    6.5135    0.4571    0.0000 C   0  0  0  0  0  0  0  0  0  0  0  0
    7.0866   -0.9291    0.0000 F   0  0  0  0  0  0  0  0  0  0  0  0
    5.9404    1.8433    0.0000 F   0  0  0  0  0  0  0  0  0  0  0  0
    5.1273   -0.1159    0.0000 C   0  0  0  0  0  0  0  0  0  0  0  0
    4.9305   -1.6030    0.0000 C   0  0  0  0  0  0  0  0  0  0  0  0
    3.5443   -2.1760    0.0000 C   0  0  0  0  0  0  0  0  0  0  0  0
    2.3549   -1.2621    0.0000 C   0  0  0  0  0  0  0  0  0  0  0  0
    0.9686   -1.8352    0.0000 C   0  0  0  0  0  0  0  0  0  0  0  0
    0.7718   -3.3222    0.0000 C   0  0  0  0  0  0  0  0  0  0  0  0
   -0.6144   -3.8953    0.0000 C   0  0  0  0  0  0  0  0  0  0  0  0
   -1.8038   -2.9813    0.0000 C   0  0  0  0  0  0  0  0  0  0  0  0
   -1.6070   -1.4943    0.0000 C   0  0  0  0  0  0  0  0  0  0  0  0
   -0.2208   -0.9212    0.0000 C   0  0  0  0  0  0  0  0  0  0  0  0
   -2.9242   -0.5741    0.0000 C   0  0  0  0  0  0  0  0  0  0  0  0
   -2.4563   -1.9993    0.0000 C   0  0  0  0  0  0  0  0  0  0  0  0
   -3.2788   -3.2536    0.0000 C   0  0  0  0  0  0  0  0  0  0  0  0
   -4.7724   -3.3926    0.0000 C   0  0  0  0  0  0  0  0  0  0  0  0
   -5.8123   -2.3116    0.0000 C   0  0  0  0  0  0  0  0  0  0  0  0
   -5.6155   -0.8246    0.0000 C   0  0  0  0  0  0  0  0  0  0  0  0
   -4.3302   -0.0513    0.0000 N   0  0  0  0  0  0  0  0  0  0  0  0
   -4.4692    1.4422    0.0000 C   0  0  0  0  0  0  0  0  0  0  0  0
   -3.2452    2.3094    0.0000 C   0  0  0  0  0  0  0  0  0  0  0  0
   -1.8823    1.6830    0.0000 C   0  0  0  0  0  0  0  0  0  0  0  0
   -0.6583    2.5502    0.0000 C   0  0  0  0  0  0  0  0  0  0  0  0
    0.7046    1.9238    0.0000 Cl  0  0  0  0  0  0  0  0  0  0  0  0
   -0.7974    4.0437    0.0000 C   0  0  0  0  0  0  0  0  0  0  0  0
   -2.1603    4.6701    0.0000 C   0  0  0  0  0  0  0  0  0  0  0  0
   -2.2993    6.1636    0.0000 Cl  0  0  0  0  0  0  0  0  0  0  0  0
   -3.3842    3.8029    0.0000 C   0  0  0  0  0  0  0  0  0  0  0  0
    2.5517    0.2249    0.0000 C   0  0  0  0  0  0  0  0  0  0  0  0
    3.9379    0.7980    0.0000 C   0  0  0  0  0  0  0  0  0  0  0  0
  1  2  1  0
  2  3  1  0
  2  4  1  0
  2  5  1  0
  5  6  2  0
  6  7  1  0
  7  8  2  0
  8  9  1  0
  9 10  2  0
 10 11  1  0
 11 12  2  0
 12 13  1  0
 13 14  2  0
 13 15  1  0
 15 16  1  0
 16 17  1  0
 17 18  1  0
 18 19  1  0
 19 20  1  0
 20 21  1  0
 21 22  1  0
 22 23  1  0
 23 24  2  0
 24 25  1  0
 25 26  1  0
 25 27  2  0
 27 28  1  0
 28 29  1  0
 28 30  2  0
  8 31  1  0
 31 32  2  0
 32  5  1  0
 14  9  1  0
 21 15  1  0
 30 23  1  0
 17 12  1  0
M  END
>  <Compound_Key>  (1182) 
UKH-114(12)

>  <Ki>  (1182) 
46.0

>  <database>  (1182) 
NewLiterature

>  <Document_ChEMBL_ID>  (1182) 
10.1016/j.bioorg.2021.105163

$$$$

     RDKit          2D

 34 39  0  0  0  0  0  0  0  0999 V2000
   -9.1951   -4.4538    0.0000 F   0  0  0  0  0  0  0  0  0  0  0  0
   -8.1869   -3.3432    0.0000 C   0  0  0  0  0  0  0  0  0  0  0  0
   -8.6446   -1.9147    0.0000 C   0  0  0  0  0  0  0  0  0  0  0  0
   -7.6365   -0.8041    0.0000 C   0  0  0  0  0  0  0  0  0  0  0  0
   -6.1705   -1.1218    0.0000 C   0  0  0  0  0  0  0  0  0  0  0  0
   -5.1623   -0.0112    0.0000 N   0  0  0  0  0  0  0  0  0  0  0  0
   -3.6712   -0.1740    0.0000 C   0  0  0  0  0  0  0  0  0  0  0  0
   -3.0555    1.1938    0.0000 C   0  0  0  0  0  0  0  0  0  0  0  0
   -1.5871    1.4998    0.0000 C   0  0  0  0  0  0  0  0  0  0  0  0
   -0.5879    0.3810    0.0000 C   0  0  0  0  0  0  0  0  0  0  0  0
    0.8806    0.6869    0.0000 C   0  0  0  0  0  0  0  0  0  0  0  0
    1.8798   -0.4318    0.0000 C   0  0  0  0  0  0  0  0  0  0  0  0
    3.3482   -0.1259    0.0000 N   0  0  0  0  0  0  0  0  0  0  0  0
    4.3474   -1.2446    0.0000 C   0  0  0  0  0  0  0  0  0  0  0  0
    5.8159   -0.9387    0.0000 C   0  0  0  0  0  0  0  0  0  0  0  0
    6.2852    0.4860    0.0000 C   0  0  0  0  0  0  0  0  0  0  0  0
    5.2860    1.6048    0.0000 C   0  0  0  0  0  0  0  0  0  0  0  0
    3.8175    1.2988    0.0000 C   0  0  0  0  0  0  0  0  0  0  0  0
    6.9008    1.8538    0.0000 O   0  0  0  0  0  0  0  0  0  0  0  0
    8.3919    1.6910    0.0000 C   0  0  0  0  0  0  0  0  0  0  0  0
    8.6979    0.2226    0.0000 C   0  0  0  0  0  0  0  0  0  0  0  0
    9.9939   -0.5327    0.0000 C   0  0  0  0  0  0  0  0  0  0  0  0
    9.9878   -2.0327    0.0000 C   0  0  0  0  0  0  0  0  0  0  0  0
    8.6858   -2.7774    0.0000 C   0  0  0  0  0  0  0  0  0  0  0  0
    7.3898   -2.0222    0.0000 C   0  0  0  0  0  0  0  0  0  0  0  0
    7.3958   -0.5222    0.0000 C   0  0  0  0  0  0  0  0  0  0  0  0
   -4.1662    2.2020    0.0000 C   0  0  0  0  0  0  0  0  0  0  0  0
   -5.4683    1.4573    0.0000 C   0  0  0  0  0  0  0  0  0  0  0  0
   -6.7642    2.2125    0.0000 C   0  0  0  0  0  0  0  0  0  0  0  0
   -6.7582    3.7125    0.0000 C   0  0  0  0  0  0  0  0  0  0  0  0
   -5.4561    4.4572    0.0000 C   0  0  0  0  0  0  0  0  0  0  0  0
   -4.1601    3.7020    0.0000 C   0  0  0  0  0  0  0  0  0  0  0  0
   -5.7127   -2.5503    0.0000 C   0  0  0  0  0  0  0  0  0  0  0  0
   -6.7209   -3.6609    0.0000 C   0  0  0  0  0  0  0  0  0  0  0  0
  1  2  1  0
  2  3  2  0
  3  4  1  0
  4  5  2  0
  5  6  1  0
  6  7  1  0
  7  8  2  0
  8  9  1  0
  9 10  1  0
 10 11  1  0
 11 12  1  0
 12 13  1  0
 13 14  1  0
 14 15  1  0
 15 16  1  0
 16 17  1  0
 17 18  1  0
 16 19  1  0
 19 20  1  0
 20 21  1  0
 21 22  2  0
 22 23  1  0
 23 24  2  0
 24 25  1  0
 25 26  2  0
  8 27  1  0
 27 28  2  0
 28 29  1  0
 29 30  2  0
 30 31  1  0
 31 32  1  0
  5 33  1  0
 33 34  2  0
 34  2  1  0
 28  6  1  0
 18 13  1  0
 26 21  1  0
 32 27  1  0
 26 16  1  0
M  END
>  <Compound_Key>  (1183) 
Siramesine (14)

>  <Ki>  (1183) 
0.12

>  <database>  (1183) 
NewLiterature

>  <Document_ChEMBL_ID>  (1183) 
10.1016/j.bioorg.2021.105163

$$$$

     RDKit          2D

 35 40  0  0  0  0  0  0  0  0999 V2000
    1.8040   -1.4268    0.0000 F   0  0  0  0  0  0  0  0  0  0  0  0
    0.3179   -1.2228    0.0000 C   0  0  0  0  0  0  0  0  0  0  0  0
   -0.6018   -2.4077    0.0000 C   0  0  0  0  0  0  0  0  0  0  0  0
   -2.0879   -2.2037    0.0000 C   0  0  0  0  0  0  0  0  0  0  0  0
   -2.6542   -0.8147    0.0000 C   0  0  0  0  0  0  0  0  0  0  0  0
   -4.1403   -0.6107    0.0000 C   0  0  0  0  0  0  0  0  0  0  0  0
   -4.7066    0.7783    0.0000 C   0  0  0  0  0  0  0  0  0  0  0  0
   -6.1926    0.9824    0.0000 C   0  0  0  0  0  0  0  0  0  0  0  0
   -7.6690    0.7172    0.0000 C   0  0  0  0  0  0  0  0  0  0  0  0
   -7.8731   -0.7688    0.0000 C   0  0  0  0  0  0  0  0  0  0  0  0
   -6.5228   -1.4221    0.0000 C   0  0  0  0  0  0  0  0  0  0  0  0
   -5.0600   -1.7956    0.0000 C   0  0  0  0  0  0  0  0  0  0  0  0
   -5.4842   -0.3398    0.0000 N   0  0  0  0  0  0  0  0  0  0  0  0
   -3.9982   -0.5438    0.0000 C   0  0  0  0  0  0  0  0  0  0  0  0
   -3.0784    0.6411    0.0000 C   0  0  0  0  0  0  0  0  0  0  0  0
   -1.5924    0.4370    0.0000 C   0  0  0  0  0  0  0  0  0  0  0  0
   -0.6726    1.6220    0.0000 C   0  0  0  0  0  0  0  0  0  0  0  0
    0.8134    1.4179    0.0000 C   0  0  0  0  0  0  0  0  0  0  0  0
    1.5218    0.0958    0.0000 C   0  0  0  0  0  0  0  0  0  0  0  0
    2.9982    0.3609    0.0000 N   0  0  0  0  0  0  0  0  0  0  0  0
    4.0805   -0.6776    0.0000 C   0  0  0  0  0  0  0  0  0  0  0  0
    3.7223   -2.1342    0.0000 C   0  0  0  0  0  0  0  0  0  0  0  0
    4.8046   -3.1728    0.0000 C   0  0  0  0  0  0  0  0  0  0  0  0
    6.2451   -2.7547    0.0000 C   0  0  0  0  0  0  0  0  0  0  0  0
    7.3274   -3.7933    0.0000 F   0  0  0  0  0  0  0  0  0  0  0  0
    6.6034   -1.2982    0.0000 C   0  0  0  0  0  0  0  0  0  0  0  0
    5.5211   -0.2596    0.0000 C   0  0  0  0  0  0  0  0  0  0  0  0
    3.2022    1.8470    0.0000 C   0  0  0  0  0  0  0  0  0  0  0  0
    4.4431    2.6897    0.0000 C   0  0  0  0  0  0  0  0  0  0  0  0
    4.3338    4.1857    0.0000 C   0  0  0  0  0  0  0  0  0  0  0  0
    2.9835    4.8390    0.0000 C   0  0  0  0  0  0  0  0  0  0  0  0
    1.7426    3.9963    0.0000 C   0  0  0  0  0  0  0  0  0  0  0  0
    1.8520    2.5003    0.0000 C   0  0  0  0  0  0  0  0  0  0  0  0
   -1.7345    0.3702    0.0000 C   0  0  0  0  0  0  0  0  0  0  0  0
   -0.2484    0.1662    0.0000 C   0  0  0  0  0  0  0  0  0  0  0  0
  1  2  1  0
  2  3  2  0
  3  4  1  0
  4  5  2  0
  5  6  1  0
  6  7  2  0
  7  8  1  0
  8  9  1  0
  9 10  1  0
 10 11  1  0
 11 12  1  0
 11 13  1  0
 13 14  1  0
 14 15  1  0
 15 16  1  0
 16 17  1  0
 17 18  1  0
 18 19  2  0
 19 20  1  0
 20 21  1  0
 21 22  2  0
 22 23  1  0
 23 24  2  0
 24 25  1  0
 24 26  1  0
 26 27  2  0
 20 28  1  0
 28 29  2  0
 29 30  1  0
 30 31  2  0
 31 32  1  0
 32 33  2  0
  5 34  1  0
 34 35  2  0
 35  2  1  0
 12  6  1  0
 33 18  1  0
 13  8  1  0
 27 21  1  0
 33 28  1  0
M  END
>  <Compound_Key>  (1184) 
15

>  <Ki>  (1184) 
2.5

>  <database>  (1184) 
NewLiterature

>  <Document_ChEMBL_ID>  (1184) 
10.1016/j.bioorg.2021.105163

$$$$

     RDKit          2D

 29 32  0  0  0  0  0  0  0  0999 V2000
   -9.1404    0.4747    0.0000 C   0  0  0  0  0  0  0  0  0  0  0  0
   -8.1639   -0.6639    0.0000 O   0  0  0  0  0  0  0  0  0  0  0  0
   -6.6896   -0.3877    0.0000 C   0  0  0  0  0  0  0  0  0  0  0  0
   -6.1917    1.0273    0.0000 C   0  0  0  0  0  0  0  0  0  0  0  0
   -4.7174    1.3036    0.0000 C   0  0  0  0  0  0  0  0  0  0  0  0
   -3.7409    0.1649    0.0000 C   0  0  0  0  0  0  0  0  0  0  0  0
   -4.2388   -1.2501    0.0000 C   0  0  0  0  0  0  0  0  0  0  0  0
   -5.7132   -1.5263    0.0000 C   0  0  0  0  0  0  0  0  0  0  0  0
   -6.2111   -2.9413    0.0000 O   0  0  0  0  0  0  0  0  0  0  0  0
   -5.2346   -4.0800    0.0000 C   0  0  0  0  0  0  0  0  0  0  0  0
   -2.2666    0.4412    0.0000 C   0  0  0  0  0  0  0  0  0  0  0  0
   -1.7687    1.8561    0.0000 N   0  0  0  0  0  0  0  0  0  0  0  0
   -0.2943    2.1324    0.0000 C   0  0  0  0  0  0  0  0  0  0  0  0
    0.6821    0.9937    0.0000 C   0  0  0  0  0  0  0  0  0  0  0  0
    2.1564    1.2700    0.0000 C   0  0  0  0  0  0  0  0  0  0  0  0
    3.1329    0.1313    0.0000 N   0  0  0  0  0  0  0  0  0  0  0  0
    2.6350   -1.2836    0.0000 C   0  0  0  0  0  0  0  0  0  0  0  0
    3.6114   -2.4223    0.0000 C   0  0  0  0  0  0  0  0  0  0  0  0
    5.0857   -2.1460    0.0000 C   0  0  0  0  0  0  0  0  0  0  0  0
    5.5836   -0.7311    0.0000 C   0  0  0  0  0  0  0  0  0  0  0  0
    7.0580   -0.4548    0.0000 C   0  0  0  0  0  0  0  0  0  0  0  0
    8.0344   -1.5935    0.0000 O   0  0  0  0  0  0  0  0  0  0  0  0
    9.5087   -1.3172    0.0000 C   0  0  0  0  0  0  0  0  0  0  0  0
    7.5559    0.9602    0.0000 C   0  0  0  0  0  0  0  0  0  0  0  0
    6.5794    2.0988    0.0000 C   0  0  0  0  0  0  0  0  0  0  0  0
    5.1051    1.8226    0.0000 C   0  0  0  0  0  0  0  0  0  0  0  0
    4.6072    0.4076    0.0000 C   0  0  0  0  0  0  0  0  0  0  0  0
   -2.7451    2.9948    0.0000 C   0  0  0  0  0  0  0  0  0  0  0  0
   -4.2194    2.7185    0.0000 C   0  0  0  0  0  0  0  0  0  0  0  0
  1  2  1  0
  2  3  1  0
  3  4  2  0
  4  5  1  0
  5  6  2  0
  6  7  1  0
  7  8  2  0
  8  9  1  0
  9 10  1  0
  6 11  1  0
 11 12  1  0
 12 13  1  0
 13 14  1  0
 14 15  1  0
 15 16  1  0
 16 17  1  0
 17 18  1  0
 18 19  1  0
 19 20  1  0
 20 21  2  0
 21 22  1  0
 22 23  1  0
 21 24  1  0
 24 25  2  0
 25 26  1  0
 26 27  2  0
 12 28  1  0
 28 29  1  0
  8  3  1  0
 27 16  1  0
 29  5  1  0
 27 20  1  0
M  END
>  <Compound_Key>  (1185) 
22

>  <Ki>  (1185) 
1.42

>  <database>  (1185) 
NewLiterature

>  <Document_ChEMBL_ID>  (1185) 
10.1038/s41598-023-39685-w

$$$$

     RDKit          2D

 28 31  0  0  0  0  0  0  0  0999 V2000
   -8.8144    0.0551    0.0000 C   0  0  0  0  0  0  0  0  0  0  0  0
   -7.7498   -1.0016    0.0000 O   0  0  0  0  0  0  0  0  0  0  0  0
   -6.3024   -0.6080    0.0000 C   0  0  0  0  0  0  0  0  0  0  0  0
   -5.9195    0.8423    0.0000 C   0  0  0  0  0  0  0  0  0  0  0  0
   -4.4721    1.2359    0.0000 C   0  0  0  0  0  0  0  0  0  0  0  0
   -3.4075    0.1792    0.0000 C   0  0  0  0  0  0  0  0  0  0  0  0
   -3.7903   -1.2711    0.0000 C   0  0  0  0  0  0  0  0  0  0  0  0
   -5.2378   -1.6647    0.0000 C   0  0  0  0  0  0  0  0  0  0  0  0
   -5.6206   -3.1151    0.0000 O   0  0  0  0  0  0  0  0  0  0  0  0
   -4.5560   -4.1718    0.0000 C   0  0  0  0  0  0  0  0  0  0  0  0
   -1.9601    0.5728    0.0000 C   0  0  0  0  0  0  0  0  0  0  0  0
   -1.5772    2.0231    0.0000 N   0  0  0  0  0  0  0  0  0  0  0  0
   -0.1298    2.4167    0.0000 C   0  0  0  0  0  0  0  0  0  0  0  0
    0.9348    1.3600    0.0000 C   0  0  0  0  0  0  0  0  0  0  0  0
    2.3822    1.7536    0.0000 C   0  0  0  0  0  0  0  0  0  0  0  0
    3.4468    0.6969    0.0000 N   0  0  0  0  0  0  0  0  0  0  0  0
    3.0640   -0.7534    0.0000 C   0  0  0  0  0  0  0  0  0  0  0  0
    4.1286   -1.8101    0.0000 C   0  0  0  0  0  0  0  0  0  0  0  0
    5.5760   -1.4165    0.0000 C   0  0  0  0  0  0  0  0  0  0  0  0
    6.6406   -2.4732    0.0000 C   0  0  0  0  0  0  0  0  0  0  0  0
    8.0881   -2.0796    0.0000 C   0  0  0  0  0  0  0  0  0  0  0  0
    8.4709   -0.6293    0.0000 C   0  0  0  0  0  0  0  0  0  0  0  0
    7.4063    0.4274    0.0000 C   0  0  0  0  0  0  0  0  0  0  0  0
    5.9589    0.0338    0.0000 C   0  0  0  0  0  0  0  0  0  0  0  0
    4.8943    1.0905    0.0000 C   0  0  0  0  0  0  0  0  0  0  0  0
    5.2771    2.5409    0.0000 O   0  0  0  0  0  0  0  0  0  0  0  0
   -2.6418    3.0798    0.0000 C   0  0  0  0  0  0  0  0  0  0  0  0
   -4.0893    2.6862    0.0000 C   0  0  0  0  0  0  0  0  0  0  0  0
  1  2  1  0
  2  3  1  0
  3  4  2  0
  4  5  1  0
  5  6  2  0
  6  7  1  0
  7  8  2  0
  8  9  1  0
  9 10  1  0
  6 11  1  0
 11 12  1  0
 12 13  1  0
 13 14  1  0
 14 15  1  0
 15 16  1  0
 16 17  1  0
 17 18  1  0
 18 19  1  0
 19 20  2  0
 20 21  1  0
 21 22  2  0
 22 23  1  0
 23 24  2  0
 24 25  1  0
 25 26  2  0
 12 27  1  0
 27 28  1  0
  8  3  1  0
 25 16  1  0
 28  5  1  0
 24 19  1  0
M  END
>  <ChemBL_ID>  (1186) 
CHEMBL1852278

>  <Ki>  (1186) 
4.84

>  <database>  (1186) 
SRSLDB

>  <Document_ChEMBL_ID>  (1186) 
10.1038/s41598-023-39684-w

$$$$

     RDKit          2D

 33 36  0  0  0  0  0  0  0  0999 V2000
    7.8297    5.1457    0.0000 C   0  0  0  0  0  0  0  0  0  0  0  0
    6.6759    4.1872    0.0000 N   0  0  0  0  0  0  0  0  0  0  0  0
    5.2689    4.7070    0.0000 C   0  0  0  0  0  0  0  0  0  0  0  0
    6.9292    2.7087    0.0000 C   0  0  0  0  0  0  0  0  0  0  0  0
    8.3362    2.1888    0.0000 S   0  0  0  0  0  0  0  0  0  0  0  0
    5.7754    1.7501    0.0000 N   0  0  0  0  0  0  0  0  0  0  0  0
    6.0287    0.2717    0.0000 N   0  0  0  0  0  0  0  0  0  0  0  0
    4.8750   -0.6869    0.0000 C   0  0  0  0  0  0  0  0  0  0  0  0
    3.4213   -0.3170    0.0000 C   0  0  0  0  0  0  0  0  0  0  0  0
    2.8662    1.0765    0.0000 O   0  0  0  0  0  0  0  0  0  0  0  0
    2.6202   -1.5851    0.0000 N   0  0  0  0  0  0  0  0  0  0  0  0
    1.1234   -1.6825    0.0000 C   0  0  0  0  0  0  0  0  0  0  0  0
    0.2907   -0.4349    0.0000 C   0  0  0  0  0  0  0  0  0  0  0  0
   -1.2062   -0.5322    0.0000 C   0  0  0  0  0  0  0  0  0  0  0  0
   -2.0389    0.7154    0.0000 C   0  0  0  0  0  0  0  0  0  0  0  0
   -3.5357    0.6181    0.0000 N   0  0  0  0  0  0  0  0  0  0  0  0
   -4.3684    1.8657    0.0000 C   0  0  0  0  0  0  0  0  0  0  0  0
   -5.8653    1.7683    0.0000 C   0  0  0  0  0  0  0  0  0  0  0  0
   -6.5294    0.4234    0.0000 N   0  0  0  0  0  0  0  0  0  0  0  0
   -8.0262    0.3260    0.0000 C   0  0  0  0  0  0  0  0  0  0  0  0
   -8.8590    1.5736    0.0000 C   0  0  0  0  0  0  0  0  0  0  0  0
  -10.3558    1.4763    0.0000 C   0  0  0  0  0  0  0  0  0  0  0  0
  -11.0199    0.1313    0.0000 C   0  0  0  0  0  0  0  0  0  0  0  0
  -10.1872   -1.1163    0.0000 C   0  0  0  0  0  0  0  0  0  0  0  0
   -8.6903   -1.0190    0.0000 C   0  0  0  0  0  0  0  0  0  0  0  0
   -5.6967   -0.8243    0.0000 C   0  0  0  0  0  0  0  0  0  0  0  0
   -4.1998   -0.7269    0.0000 C   0  0  0  0  0  0  0  0  0  0  0  0
    3.5788   -2.7389    0.0000 C   0  0  0  0  0  0  0  0  0  0  0  0
    3.3628   -4.2233    0.0000 C   0  0  0  0  0  0  0  0  0  0  0  0
    4.5403   -5.1525    0.0000 C   0  0  0  0  0  0  0  0  0  0  0  0
    5.9338   -4.5974    0.0000 C   0  0  0  0  0  0  0  0  0  0  0  0
    6.1498   -3.1130    0.0000 C   0  0  0  0  0  0  0  0  0  0  0  0
    4.9723   -2.1838    0.0000 C   0  0  0  0  0  0  0  0  0  0  0  0
  1  2  1  0
  2  3  1  0
  2  4  1  0
  4  5  2  0
  4  6  1  0
  6  7  1  0
  7  8  2  0
  8  9  1  0
  9 10  2  0
  9 11  1  0
 11 12  1  0
 12 13  1  0
 13 14  1  0
 14 15  1  0
 15 16  1  0
 16 17  1  0
 17 18  1  0
 18 19  1  0
 19 20  1  0
 20 21  1  0
 21 22  1  0
 22 23  1  0
 23 24  1  0
 24 25  1  0
 19 26  1  0
 26 27  1  0
 11 28  1  0
 28 29  2  0
 29 30  1  0
 30 31  2  0
 31 32  1  0
 32 33  2  0
 33  8  1  0
 27 16  1  0
 33 28  1  0
 25 20  1  0
M  END
>  <Compound_Key>  (1187) 
22

>  <Ki>  (1187) 
35.4

>  <database>  (1187) 
NewLiterature

>  <Document_ChEMBL_ID>  (1187) 
10.1016/j.bioorg.2021.105163

$$$$

     RDKit          2D

 30 33  0  0  0  0  0  0  0  0999 V2000
    9.5318    2.7834    0.0000 C   0  0  0  0  0  0  0  0  0  0  0  0
    8.5279    1.6688    0.0000 C   0  0  0  0  0  0  0  0  0  0  0  0
    7.0608    1.9809    0.0000 C   0  0  0  0  0  0  0  0  0  0  0  0
    6.0569    0.8664    0.0000 N   0  0  0  0  0  0  0  0  0  0  0  0
    4.5651    1.0234    0.0000 C   0  0  0  0  0  0  0  0  0  0  0  0
    3.8153    2.3225    0.0000 O   0  0  0  0  0  0  0  0  0  0  0  0
    3.9548   -0.3468    0.0000 N   0  0  0  0  0  0  0  0  0  0  0  0
    2.4876   -0.6585    0.0000 C   0  0  0  0  0  0  0  0  0  0  0  0
    1.4840    0.4564    0.0000 C   0  0  0  0  0  0  0  0  0  0  0  0
    0.0168    0.1447    0.0000 C   0  0  0  0  0  0  0  0  0  0  0  0
   -0.9868    1.2596    0.0000 C   0  0  0  0  0  0  0  0  0  0  0  0
   -2.4540    0.9480    0.0000 N   0  0  0  0  0  0  0  0  0  0  0  0
   -3.4576    2.0628    0.0000 C   0  0  0  0  0  0  0  0  0  0  0  0
   -4.9248    1.7512    0.0000 C   0  0  0  0  0  0  0  0  0  0  0  0
   -5.3886    0.3247    0.0000 N   0  0  0  0  0  0  0  0  0  0  0  0
   -6.8558    0.0130    0.0000 C   0  0  0  0  0  0  0  0  0  0  0  0
   -7.8594    1.1279    0.0000 C   0  0  0  0  0  0  0  0  0  0  0  0
   -9.3266    0.8163    0.0000 C   0  0  0  0  0  0  0  0  0  0  0  0
   -9.7904   -0.6102    0.0000 C   0  0  0  0  0  0  0  0  0  0  0  0
  -11.2576   -0.9219    0.0000 F   0  0  0  0  0  0  0  0  0  0  0  0
   -8.7869   -1.7251    0.0000 C   0  0  0  0  0  0  0  0  0  0  0  0
   -7.3196   -1.4135    0.0000 C   0  0  0  0  0  0  0  0  0  0  0  0
   -4.3850   -0.7902    0.0000 C   0  0  0  0  0  0  0  0  0  0  0  0
   -2.9178   -0.4785    0.0000 C   0  0  0  0  0  0  0  0  0  0  0  0
    5.0694   -1.3507    0.0000 C   0  0  0  0  0  0  0  0  0  0  0  0
    5.0692   -2.8507    0.0000 C   0  0  0  0  0  0  0  0  0  0  0  0
    6.3681   -3.6009    0.0000 C   0  0  0  0  0  0  0  0  0  0  0  0
    7.6672   -2.8511    0.0000 C   0  0  0  0  0  0  0  0  0  0  0  0
    7.6675   -1.3511    0.0000 C   0  0  0  0  0  0  0  0  0  0  0  0
    6.3685   -0.6009    0.0000 C   0  0  0  0  0  0  0  0  0  0  0  0
  1  2  1  0
  2  3  1  0
  3  4  1  0
  4  5  1  0
  5  6  2  0
  5  7  1  0
  7  8  1  0
  8  9  1  0
  9 10  1  0
 10 11  1  0
 11 12  1  0
 12 13  1  0
 13 14  1  0
 14 15  1  0
 15 16  1  0
 16 17  2  0
 17 18  1  0
 18 19  2  0
 19 20  1  0
 19 21  1  0
 21 22  2  0
 15 23  1  0
 23 24  1  0
  7 25  1  0
 25 26  2  0
 26 27  1  0
 27 28  2  0
 28 29  1  0
 29 30  2  0
 30  4  1  0
 24 12  1  0
 30 25  1  0
 22 16  1  0
M  END
>  <Compound_Key>  (1188) 
25

>  <Ki>  (1188) 
0.66

>  <database>  (1188) 
NewLiterature

>  <Document_ChEMBL_ID>  (1188) 
10.1016/j.bioorg.2021.105163

$$$$

     RDKit          2D

 32 35  0  0  0  0  0  0  0  0999 V2000
   11.4343    2.8500    0.0000 C   0  0  0  0  0  0  0  0  0  0  0  0
   10.3780    1.7850    0.0000 C   0  0  0  0  0  0  0  0  0  0  0  0
    8.9276    2.1673    0.0000 C   0  0  0  0  0  0  0  0  0  0  0  0
    7.8712    1.1023    0.0000 C   0  0  0  0  0  0  0  0  0  0  0  0
    6.4208    1.4846    0.0000 C   0  0  0  0  0  0  0  0  0  0  0  0
    5.3645    0.4196    0.0000 N   0  0  0  0  0  0  0  0  0  0  0  0
    3.8820    0.6482    0.0000 C   0  0  0  0  0  0  0  0  0  0  0  0
    3.1955    1.9819    0.0000 O   0  0  0  0  0  0  0  0  0  0  0  0
    3.2065   -0.6911    0.0000 N   0  0  0  0  0  0  0  0  0  0  0  0
    1.7259   -0.9319    0.0000 C   0  0  0  0  0  0  0  0  0  0  0  0
    0.7772    0.2300    0.0000 C   0  0  0  0  0  0  0  0  0  0  0  0
   -0.7034   -0.0107    0.0000 C   0  0  0  0  0  0  0  0  0  0  0  0
   -1.6521    1.1511    0.0000 C   0  0  0  0  0  0  0  0  0  0  0  0
   -3.1327    0.9104    0.0000 N   0  0  0  0  0  0  0  0  0  0  0  0
   -4.0814    2.0722    0.0000 C   0  0  0  0  0  0  0  0  0  0  0  0
   -5.5620    1.8315    0.0000 C   0  0  0  0  0  0  0  0  0  0  0  0
   -6.0938    0.4290    0.0000 N   0  0  0  0  0  0  0  0  0  0  0  0
   -7.5744    0.1882    0.0000 C   0  0  0  0  0  0  0  0  0  0  0  0
   -8.5231    1.3501    0.0000 C   0  0  0  0  0  0  0  0  0  0  0  0
  -10.0037    1.1094    0.0000 C   0  0  0  0  0  0  0  0  0  0  0  0
  -10.5355   -0.2932    0.0000 C   0  0  0  0  0  0  0  0  0  0  0  0
  -12.0160   -0.5339    0.0000 F   0  0  0  0  0  0  0  0  0  0  0  0
   -9.5867   -1.4550    0.0000 C   0  0  0  0  0  0  0  0  0  0  0  0
   -8.1062   -1.2143    0.0000 C   0  0  0  0  0  0  0  0  0  0  0  0
   -5.1451   -0.7329    0.0000 C   0  0  0  0  0  0  0  0  0  0  0  0
   -3.6645   -0.4922    0.0000 C   0  0  0  0  0  0  0  0  0  0  0  0
    4.2715   -1.7474    0.0000 C   0  0  0  0  0  0  0  0  0  0  0  0
    4.1991   -3.2457    0.0000 C   0  0  0  0  0  0  0  0  0  0  0  0
    5.4605   -4.0575    0.0000 C   0  0  0  0  0  0  0  0  0  0  0  0
    6.7942   -3.3710    0.0000 C   0  0  0  0  0  0  0  0  0  0  0  0
    6.8665   -1.8728    0.0000 C   0  0  0  0  0  0  0  0  0  0  0  0
    5.6052   -1.0610    0.0000 C   0  0  0  0  0  0  0  0  0  0  0  0
  1  2  1  0
  2  3  1  0
  3  4  1  0
  4  5  1  0
  5  6  1  0
  6  7  1  0
  7  8  2  0
  7  9  1  0
  9 10  1  0
 10 11  1  0
 11 12  1  0
 12 13  1  0
 13 14  1  0
 14 15  1  0
 15 16  1  0
 16 17  1  0
 17 18  1  0
 18 19  2  0
 19 20  1  0
 20 21  2  0
 21 22  1  0
 21 23  1  0
 23 24  2  0
 17 25  1  0
 25 26  1  0
  9 27  1  0
 27 28  2  0
 28 29  1  0
 29 30  2  0
 30 31  1  0
 31 32  2  0
 32  6  1  0
 26 14  1  0
 32 27  1  0
 24 18  1  0
M  END
>  <Compound_Key>  (1189) 
26

>  <Ki>  (1189) 
4.27

>  <database>  (1189) 
NewLiterature

>  <Document_ChEMBL_ID>  (1189) 
10.1016/j.bioorg.2021.105163

$$$$

     RDKit          2D

 29 32  0  0  0  0  0  0  0  0999 V2000
   -9.1298   -0.1749    0.0000 C   0  0  0  0  0  0  0  0  0  0  0  0
   -8.0268   -1.1915    0.0000 O   0  0  0  0  0  0  0  0  0  0  0  0
   -6.5949   -0.7446    0.0000 C   0  0  0  0  0  0  0  0  0  0  0  0
   -6.2661    0.7189    0.0000 C   0  0  0  0  0  0  0  0  0  0  0  0
   -4.8342    1.1659    0.0000 C   0  0  0  0  0  0  0  0  0  0  0  0
   -3.7312    0.1493    0.0000 C   0  0  0  0  0  0  0  0  0  0  0  0
   -4.0601   -1.3142    0.0000 C   0  0  0  0  0  0  0  0  0  0  0  0
   -5.4919   -1.7611    0.0000 C   0  0  0  0  0  0  0  0  0  0  0  0
   -5.8208   -3.2246    0.0000 O   0  0  0  0  0  0  0  0  0  0  0  0
   -4.7178   -4.2412    0.0000 C   0  0  0  0  0  0  0  0  0  0  0  0
   -2.2993    0.5962    0.0000 C   0  0  0  0  0  0  0  0  0  0  0  0
   -1.9704    2.0597    0.0000 N   0  0  0  0  0  0  0  0  0  0  0  0
   -0.5386    2.5067    0.0000 C   0  0  0  0  0  0  0  0  0  0  0  0
    0.5644    1.4901    0.0000 C   0  0  0  0  0  0  0  0  0  0  0  0
    1.9963    1.9370    0.0000 C   0  0  0  0  0  0  0  0  0  0  0  0
    3.0993    0.9204    0.0000 N   0  0  0  0  0  0  0  0  0  0  0  0
    2.7704   -0.5431    0.0000 C   0  0  0  0  0  0  0  0  0  0  0  0
    3.8734   -1.5596    0.0000 C   0  0  0  0  0  0  0  0  0  0  0  0
    5.3053   -1.1127    0.0000 C   0  0  0  0  0  0  0  0  0  0  0  0
    6.4082   -2.1293    0.0000 C   0  0  0  0  0  0  0  0  0  0  0  0
    7.8401   -1.6823    0.0000 C   0  0  0  0  0  0  0  0  0  0  0  0
    8.9431   -2.6989    0.0000 F   0  0  0  0  0  0  0  0  0  0  0  0
    8.1690   -0.2188    0.0000 C   0  0  0  0  0  0  0  0  0  0  0  0
    7.0660    0.7977    0.0000 C   0  0  0  0  0  0  0  0  0  0  0  0
    5.6341    0.3508    0.0000 C   0  0  0  0  0  0  0  0  0  0  0  0
    4.5311    1.3674    0.0000 C   0  0  0  0  0  0  0  0  0  0  0  0
    4.8600    2.8309    0.0000 O   0  0  0  0  0  0  0  0  0  0  0  0
   -3.0734    3.0763    0.0000 C   0  0  0  0  0  0  0  0  0  0  0  0
   -4.5053    2.6294    0.0000 C   0  0  0  0  0  0  0  0  0  0  0  0
  1  2  1  0
  2  3  1  0
  3  4  2  0
  4  5  1  0
  5  6  2  0
  6  7  1  0
  7  8  2  0
  8  9  1  0
  9 10  1  0
  6 11  1  0
 11 12  1  0
 12 13  1  0
 13 14  1  0
 14 15  1  0
 15 16  1  0
 16 17  1  0
 17 18  1  0
 18 19  1  0
 19 20  2  0
 20 21  1  0
 21 22  1  0
 21 23  2  0
 23 24  1  0
 24 25  2  0
 25 26  1  0
 26 27  2  0
 12 28  1  0
 28 29  1  0
  8  3  1  0
 26 16  1  0
 29  5  1  0
 25 19  1  0
M  END
>  <ChemBL_ID>  (1190) 
CHEMBL2437383

>  <Ki>  (1190) 
3.56

>  <database>  (1190) 
SRSLDB

>  <Document_ChEMBL_ID>  (1190) 
10.1038/s41598-023-39683-w

$$$$

     RDKit          2D

 30 32  0  0  0  0  0  0  0  0999 V2000
   -7.9571    4.3534    0.0000 C   0  0  0  0  0  0  0  0  0  0  0  0
   -8.3032    2.8939    0.0000 O   0  0  0  0  0  0  0  0  0  0  0  0
   -7.2122    1.8644    0.0000 C   0  0  0  0  0  0  0  0  0  0  0  0
   -5.7752    2.2944    0.0000 C   0  0  0  0  0  0  0  0  0  0  0  0
   -4.6843    1.2650    0.0000 C   0  0  0  0  0  0  0  0  0  0  0  0
   -5.0304   -0.1946    0.0000 C   0  0  0  0  0  0  0  0  0  0  0  0
   -3.9394   -1.2241    0.0000 C   0  0  0  0  0  0  0  0  0  0  0  0
   -4.2855   -2.6836    0.0000 O   0  0  0  0  0  0  0  0  0  0  0  0
   -2.5024   -0.7940    0.0000 C   0  0  0  0  0  0  0  0  0  0  0  0
   -1.4115   -1.8235    0.0000 C   0  0  0  0  0  0  0  0  0  0  0  0
    0.0256   -1.3935    0.0000 C   0  0  0  0  0  0  0  0  0  0  0  0
    1.1165   -2.4230    0.0000 C   0  0  0  0  0  0  0  0  0  0  0  0
    2.5535   -1.9930    0.0000 N   0  0  0  0  0  0  0  0  0  0  0  0
    3.6445   -3.0225    0.0000 C   0  0  0  0  0  0  0  0  0  0  0  0
    5.0815   -2.5924    0.0000 C   0  0  0  0  0  0  0  0  0  0  0  0
    5.4276   -1.1329    0.0000 C   0  0  0  0  0  0  0  0  0  0  0  0
    6.8647   -0.7029    0.0000 C   0  0  0  0  0  0  0  0  0  0  0  0
    7.2108    0.7566    0.0000 C   0  0  0  0  0  0  0  0  0  0  0  0
    8.6478    1.1867    0.0000 O   0  0  0  0  0  0  0  0  0  0  0  0
    9.7387    0.1572    0.0000 C   0  0  0  0  0  0  0  0  0  0  0  0
    6.1198    1.7861    0.0000 C   0  0  0  0  0  0  0  0  0  0  0  0
    6.4659    3.2457    0.0000 O   0  0  0  0  0  0  0  0  0  0  0  0
    5.3750    4.2752    0.0000 C   0  0  0  0  0  0  0  0  0  0  0  0
    4.6828    1.3561    0.0000 C   0  0  0  0  0  0  0  0  0  0  0  0
    4.3367   -0.1034    0.0000 C   0  0  0  0  0  0  0  0  0  0  0  0
    2.8996   -0.5334    0.0000 C   0  0  0  0  0  0  0  0  0  0  0  0
   -6.4674   -0.6246    0.0000 C   0  0  0  0  0  0  0  0  0  0  0  0
   -6.8135   -2.0841    0.0000 O   0  0  0  0  0  0  0  0  0  0  0  0
   -8.2505   -2.5142    0.0000 C   0  0  0  0  0  0  0  0  0  0  0  0
   -7.5583    0.4049    0.0000 C   0  0  0  0  0  0  0  0  0  0  0  0
  1  2  1  0
  2  3  1  0
  3  4  2  0
  4  5  1  0
  5  6  2  0
  6  7  1  0
  7  8  2  0
  7  9  1  0
  9 10  1  0
 10 11  1  0
 11 12  1  0
 12 13  1  0
 13 14  1  0
 14 15  1  0
 15 16  1  0
 16 17  2  0
 17 18  1  0
 18 19  1  0
 19 20  1  0
 18 21  2  0
 21 22  1  0
 22 23  1  0
 21 24  1  0
 24 25  2  0
 25 26  1  0
  6 27  1  0
 27 28  1  0
 28 29  1  0
 27 30  2  0
 30  3  1  0
 26 13  1  0
 25 16  1  0
M  END
>  <Compound_Key>  (1191) 
32a

>  <Ki>  (1191) 
5.8

>  <database>  (1191) 
NewLiterature

>  <Document_ChEMBL_ID>  (1191) 
10.1016/j.bioorg.2021.105163

$$$$

     RDKit          2D

 30 32  0  0  0  0  0  0  0  0999 V2000
   -7.9571    4.3534    0.0000 C   0  0  0  0  0  0  0  0  0  0  0  0
   -8.3032    2.8939    0.0000 O   0  0  0  0  0  0  0  0  0  0  0  0
   -7.2122    1.8644    0.0000 C   0  0  0  0  0  0  0  0  0  0  0  0
   -5.7752    2.2944    0.0000 C   0  0  0  0  0  0  0  0  0  0  0  0
   -4.6843    1.2650    0.0000 C   0  0  0  0  0  0  0  0  0  0  0  0
   -5.0304   -0.1946    0.0000 C   0  0  0  0  0  0  0  0  0  0  0  0
   -3.9394   -1.2241    0.0000 C   0  0  0  0  0  0  0  0  0  0  0  0
   -4.2855   -2.6836    0.0000 O   0  0  0  0  0  0  0  0  0  0  0  0
   -2.5024   -0.7940    0.0000 C   0  0  0  0  0  0  0  0  0  0  0  0
   -1.4115   -1.8235    0.0000 C   0  0  0  0  0  0  0  0  0  0  0  0
    0.0256   -1.3935    0.0000 C   0  0  0  0  0  0  0  0  0  0  0  0
    1.1165   -2.4230    0.0000 C   0  0  0  0  0  0  0  0  0  0  0  0
    2.5535   -1.9930    0.0000 N   0  0  0  0  0  0  0  0  0  0  0  0
    3.6445   -3.0225    0.0000 C   0  0  0  0  0  0  0  0  0  0  0  0
    5.0815   -2.5924    0.0000 C   0  0  0  0  0  0  0  0  0  0  0  0
    5.4276   -1.1329    0.0000 C   0  0  0  0  0  0  0  0  0  0  0  0
    6.8647   -0.7029    0.0000 C   0  0  0  0  0  0  0  0  0  0  0  0
    7.2108    0.7566    0.0000 C   0  0  0  0  0  0  0  0  0  0  0  0
    8.6478    1.1867    0.0000 O   0  0  0  0  0  0  0  0  0  0  0  0
    9.7387    0.1572    0.0000 C   0  0  0  0  0  0  0  0  0  0  0  0
    6.1198    1.7861    0.0000 C   0  0  0  0  0  0  0  0  0  0  0  0
    6.4659    3.2457    0.0000 O   0  0  0  0  0  0  0  0  0  0  0  0
    5.3750    4.2752    0.0000 C   0  0  0  0  0  0  0  0  0  0  0  0
    4.6828    1.3561    0.0000 C   0  0  0  0  0  0  0  0  0  0  0  0
    4.3367   -0.1034    0.0000 C   0  0  0  0  0  0  0  0  0  0  0  0
    2.8996   -0.5334    0.0000 C   0  0  0  0  0  0  0  0  0  0  0  0
   -6.4674   -0.6246    0.0000 C   0  0  0  0  0  0  0  0  0  0  0  0
   -6.8135   -2.0841    0.0000 O   0  0  0  0  0  0  0  0  0  0  0  0
   -8.2505   -2.5142    0.0000 C   0  0  0  0  0  0  0  0  0  0  0  0
   -7.5583    0.4049    0.0000 C   0  0  0  0  0  0  0  0  0  0  0  0
  1  2  1  0
  2  3  1  0
  3  4  2  0
  4  5  1  0
  5  6  2  0
  6  7  1  0
  7  8  1  0
  7  9  1  0
  9 10  1  0
 10 11  1  0
 11 12  1  0
 12 13  1  0
 13 14  1  0
 14 15  1  0
 15 16  1  0
 16 17  2  0
 17 18  1  0
 18 19  1  0
 19 20  1  0
 18 21  2  0
 21 22  1  0
 22 23  1  0
 21 24  1  0
 24 25  2  0
 25 26  1  0
  6 27  1  0
 27 28  1  0
 28 29  1  0
 27 30  2  0
 30  3  1  0
 26 13  1  0
 25 16  1  0
M  END
>  <Compound_Key>  (1192) 
33a

>  <Ki>  (1192) 
6.2

>  <database>  (1192) 
NewLiterature

>  <Document_ChEMBL_ID>  (1192) 
10.1016/j.bioorg.2021.105163

$$$$

     RDKit          2D

 30 33  0  0  0  0  0  0  0  0999 V2000
   -9.2663   -0.3712    0.0000 C   0  0  0  0  0  0  0  0  0  0  0  0
   -8.1226   -1.3418    0.0000 O   0  0  0  0  0  0  0  0  0  0  0  0
   -6.7103   -0.8366    0.0000 C   0  0  0  0  0  0  0  0  0  0  0  0
   -6.4416    0.6391    0.0000 C   0  0  0  0  0  0  0  0  0  0  0  0
   -5.0292    1.1443    0.0000 C   0  0  0  0  0  0  0  0  0  0  0  0
   -3.8855    0.1738    0.0000 C   0  0  0  0  0  0  0  0  0  0  0  0
   -4.1542   -1.3020    0.0000 C   0  0  0  0  0  0  0  0  0  0  0  0
   -5.5666   -1.8072    0.0000 C   0  0  0  0  0  0  0  0  0  0  0  0
   -5.8352   -3.2829    0.0000 O   0  0  0  0  0  0  0  0  0  0  0  0
   -4.6916   -4.2534    0.0000 C   0  0  0  0  0  0  0  0  0  0  0  0
   -2.4732    0.6790    0.0000 C   0  0  0  0  0  0  0  0  0  0  0  0
   -2.2045    2.1547    0.0000 N   0  0  0  0  0  0  0  0  0  0  0  0
   -0.7921    2.6599    0.0000 C   0  0  0  0  0  0  0  0  0  0  0  0
    0.3516    1.6893    0.0000 C   0  0  0  0  0  0  0  0  0  0  0  0
    1.7639    2.1945    0.0000 C   0  0  0  0  0  0  0  0  0  0  0  0
    2.9076    1.2240    0.0000 N   0  0  0  0  0  0  0  0  0  0  0  0
    2.6390   -0.2518    0.0000 C   0  0  0  0  0  0  0  0  0  0  0  0
    3.7827   -1.2223    0.0000 C   0  0  0  0  0  0  0  0  0  0  0  0
    5.1950   -0.7171    0.0000 C   0  0  0  0  0  0  0  0  0  0  0  0
    6.3387   -1.6877    0.0000 C   0  0  0  0  0  0  0  0  0  0  0  0
    6.0700   -3.1634    0.0000 O   0  0  0  0  0  0  0  0  0  0  0  0
    7.2137   -4.1340    0.0000 C   0  0  0  0  0  0  0  0  0  0  0  0
    7.7511   -1.1825    0.0000 C   0  0  0  0  0  0  0  0  0  0  0  0
    8.0198    0.2933    0.0000 C   0  0  0  0  0  0  0  0  0  0  0  0
    6.8761    1.2638    0.0000 C   0  0  0  0  0  0  0  0  0  0  0  0
    5.4637    0.7586    0.0000 C   0  0  0  0  0  0  0  0  0  0  0  0
    4.3200    1.7292    0.0000 C   0  0  0  0  0  0  0  0  0  0  0  0
    4.5887    3.2049    0.0000 O   0  0  0  0  0  0  0  0  0  0  0  0
   -3.3482    3.1253    0.0000 C   0  0  0  0  0  0  0  0  0  0  0  0
   -4.7605    2.6201    0.0000 C   0  0  0  0  0  0  0  0  0  0  0  0
  1  2  1  0
  2  3  1  0
  3  4  2  0
  4  5  1  0
  5  6  2  0
  6  7  1  0
  7  8  2  0
  8  9  1  0
  9 10  1  0
  6 11  1  0
 11 12  1  0
 12 13  1  0
 13 14  1  0
 14 15  1  0
 15 16  1  0
 16 17  1  0
 17 18  1  0
 18 19  1  0
 19 20  2  0
 20 21  1  0
 21 22  1  0
 20 23  1  0
 23 24  2  0
 24 25  1  0
 25 26  2  0
 26 27  1  0
 27 28  2  0
 12 29  1  0
 29 30  1  0
  8  3  1  0
 27 16  1  0
 30  5  1  0
 26 19  1  0
M  END
>  <ChemBL_ID>  (1193) 
CHEMBL2437387

>  <Ki>  (1193) 
4.24

>  <database>  (1193) 
SRSLDB

>  <Document_ChEMBL_ID>  (1193) 
10.1038/s41598-023-39682-w

$$$$

     RDKit          2D

 27 30  0  0  0  0  0  0  0  0999 V2000
   -8.4662    0.7403    0.0000 C   0  0  0  0  0  0  0  0  0  0  0  0
   -7.5409   -0.4402    0.0000 O   0  0  0  0  0  0  0  0  0  0  0  0
   -6.0558   -0.2291    0.0000 C   0  0  0  0  0  0  0  0  0  0  0  0
   -5.4961    1.1626    0.0000 C   0  0  0  0  0  0  0  0  0  0  0  0
   -4.0110    1.3737    0.0000 C   0  0  0  0  0  0  0  0  0  0  0  0
   -3.0857    0.1931    0.0000 C   0  0  0  0  0  0  0  0  0  0  0  0
   -3.6454   -1.1986    0.0000 C   0  0  0  0  0  0  0  0  0  0  0  0
   -5.1304   -1.4097    0.0000 C   0  0  0  0  0  0  0  0  0  0  0  0
   -5.6902   -2.8013    0.0000 O   0  0  0  0  0  0  0  0  0  0  0  0
   -4.7648   -3.9819    0.0000 C   0  0  0  0  0  0  0  0  0  0  0  0
   -1.6006    0.4042    0.0000 C   0  0  0  0  0  0  0  0  0  0  0  0
   -1.0409    1.7959    0.0000 N   0  0  0  0  0  0  0  0  0  0  0  0
    0.4442    2.0070    0.0000 C   0  0  0  0  0  0  0  0  0  0  0  0
    1.3695    0.8264    0.0000 C   0  0  0  0  0  0  0  0  0  0  0  0
    2.8546    1.0375    0.0000 C   0  0  0  0  0  0  0  0  0  0  0  0
    3.7800   -0.1430    0.0000 N   0  0  0  0  0  0  0  0  0  0  0  0
    3.2203   -1.5347    0.0000 C   0  0  0  0  0  0  0  0  0  0  0  0
    4.1456   -2.7152    0.0000 C   0  0  0  0  0  0  0  0  0  0  0  0
    5.6307   -2.5041    0.0000 C   0  0  0  0  0  0  0  0  0  0  0  0
    6.1904   -1.1125    0.0000 C   0  0  0  0  0  0  0  0  0  0  0  0
    7.6755   -0.9013    0.0000 C   0  0  0  0  0  0  0  0  0  0  0  0
    8.2352    0.4903    0.0000 C   0  0  0  0  0  0  0  0  0  0  0  0
    7.3098    1.6709    0.0000 C   0  0  0  0  0  0  0  0  0  0  0  0
    5.8248    1.4598    0.0000 C   0  0  0  0  0  0  0  0  0  0  0  0
    5.2650    0.0681    0.0000 C   0  0  0  0  0  0  0  0  0  0  0  0
   -1.9663    2.9764    0.0000 C   0  0  0  0  0  0  0  0  0  0  0  0
   -3.4513    2.7653    0.0000 C   0  0  0  0  0  0  0  0  0  0  0  0
  1  2  1  0
  2  3  1  0
  3  4  2  0
  4  5  1  0
  5  6  2  0
  6  7  1  0
  7  8  2  0
  8  9  1  0
  9 10  1  0
  6 11  1  0
 11 12  1  0
 12 13  1  0
 13 14  1  0
 14 15  1  0
 15 16  1  0
 16 17  1  0
 17 18  1  0
 18 19  1  0
 19 20  1  0
 20 21  2  0
 21 22  1  0
 22 23  2  0
 23 24  1  0
 24 25  2  0
 12 26  1  0
 26 27  1  0
  8  3  1  0
 25 16  1  0
 27  5  1  0
 25 20  1  0
M  END
>  <Compound_Key>  (1194) 
35

>  <Ki>  (1194) 
1.42

>  <database>  (1194) 
NewLiterature

>  <Document_ChEMBL_ID>  (1194) 
10.1016/j.bioorg.2021.105163

$$$$

     RDKit          2D

 30 33  0  0  0  0  0  0  0  0999 V2000
   -7.7343    2.9954    0.0000 C   0  0  0  0  0  0  0  0  0  0  0  0
   -8.8363    1.9778    0.0000 C   0  0  0  0  0  0  0  0  0  0  0  0
  -10.2686    2.4233    0.0000 C   0  0  0  0  0  0  0  0  0  0  0  0
   -8.5060    0.5146    0.0000 C   0  0  0  0  0  0  0  0  0  0  0  0
   -7.0737    0.0690    0.0000 N   0  0  0  0  0  0  0  0  0  0  0  0
   -5.9717    1.0867    0.0000 C   0  0  0  0  0  0  0  0  0  0  0  0
   -4.5394    0.6411    0.0000 C   0  0  0  0  0  0  0  0  0  0  0  0
   -4.2091   -0.8220    0.0000 N   0  0  0  0  0  0  0  0  0  0  0  0
   -2.7768   -1.2676    0.0000 C   0  0  0  0  0  0  0  0  0  0  0  0
   -2.4465   -2.7308    0.0000 C   0  0  0  0  0  0  0  0  0  0  0  0
   -1.0142   -3.1763    0.0000 C   0  0  0  0  0  0  0  0  0  0  0  0
    0.0878   -2.1587    0.0000 C   0  0  0  0  0  0  0  0  0  0  0  0
   -0.2425   -0.6955    0.0000 C   0  0  0  0  0  0  0  0  0  0  0  0
   -1.6748   -0.2499    0.0000 C   0  0  0  0  0  0  0  0  0  0  0  0
    0.8595    0.3222    0.0000 C   0  0  0  0  0  0  0  0  0  0  0  0
    2.2918   -0.1234    0.0000 N   0  0  0  0  0  0  0  0  0  0  0  0
    3.3938    0.8943    0.0000 C   0  0  0  0  0  0  0  0  0  0  0  0
    3.0635    2.3575    0.0000 O   0  0  0  0  0  0  0  0  0  0  0  0
    4.8261    0.4487    0.0000 O   0  0  0  0  0  0  0  0  0  0  0  0
    5.9281    1.4664    0.0000 C   0  0  0  0  0  0  0  0  0  0  0  0
    7.3604    1.0208    0.0000 C   0  0  0  0  0  0  0  0  0  0  0  0
    7.6907   -0.4423    0.0000 C   0  0  0  0  0  0  0  0  0  0  0  0
    9.1230   -0.8879    0.0000 C   0  0  0  0  0  0  0  0  0  0  0  0
   10.2250    0.1298    0.0000 C   0  0  0  0  0  0  0  0  0  0  0  0
    9.8947    1.5929    0.0000 C   0  0  0  0  0  0  0  0  0  0  0  0
    8.4624    2.0385    0.0000 C   0  0  0  0  0  0  0  0  0  0  0  0
    2.6221   -1.5866    0.0000 C   0  0  0  0  0  0  0  0  0  0  0  0
    1.5201   -2.6042    0.0000 C   0  0  0  0  0  0  0  0  0  0  0  0
   -5.3111   -1.8397    0.0000 C   0  0  0  0  0  0  0  0  0  0  0  0
   -6.7434   -1.3941    0.0000 C   0  0  0  0  0  0  0  0  0  0  0  0
  1  2  2  0
  2  3  1  0
  2  4  1  0
  4  5  1  0
  5  6  1  0
  6  7  1  0
  7  8  1  0
  8  9  1  0
  9 10  2  0
 10 11  1  0
 11 12  2  0
 12 13  1  0
 13 14  2  0
 13 15  1  0
 15 16  1  0
 16 17  1  0
 17 18  2  0
 17 19  1  0
 19 20  1  0
 20 21  1  0
 21 22  2  0
 22 23  1  0
 23 24  2  0
 24 25  1  0
 25 26  2  0
 16 27  1  0
 27 28  1  0
  8 29  1  0
 29 30  1  0
 30  5  1  0
 14  9  1  0
 26 21  1  0
 28 12  1  0
M  END
>  <Compound_Key>  (1195) 
36

>  <Ki>  (1195) 
25.0

>  <database>  (1195) 
NewLiterature

>  <Document_ChEMBL_ID>  (1195) 
10.1016/j.bioorg.2021.105163

$$$$

     RDKit          2D

 31 35  0  0  0  0  0  0  0  0999 V2000
   -5.8314   -2.5487    0.0000 O   0  0  0  0  0  0  0  0  0  0  0  0
   -4.6085   -1.6800    0.0000 C   0  0  0  0  0  0  0  0  0  0  0  0
   -4.7493   -0.1866    0.0000 O   0  0  0  0  0  0  0  0  0  0  0  0
   -6.1130    0.4381    0.0000 C   0  0  0  0  0  0  0  0  0  0  0  0
   -6.2538    1.9315    0.0000 C   0  0  0  0  0  0  0  0  0  0  0  0
   -5.0309    2.8001    0.0000 C   0  0  0  0  0  0  0  0  0  0  0  0
   -5.1717    4.2935    0.0000 C   0  0  0  0  0  0  0  0  0  0  0  0
   -6.5354    4.9182    0.0000 C   0  0  0  0  0  0  0  0  0  0  0  0
   -7.7583    4.0496    0.0000 C   0  0  0  0  0  0  0  0  0  0  0  0
   -7.6175    2.5562    0.0000 C   0  0  0  0  0  0  0  0  0  0  0  0
   -3.2448   -2.3048    0.0000 N   0  0  0  0  0  0  0  0  0  0  0  0
   -3.1039   -3.7981    0.0000 C   0  0  0  0  0  0  0  0  0  0  0  0
   -1.7402   -4.4229    0.0000 C   0  0  0  0  0  0  0  0  0  0  0  0
   -0.5173   -3.5543    0.0000 C   0  0  0  0  0  0  0  0  0  0  0  0
    0.8464   -4.1790    0.0000 C   0  0  0  0  0  0  0  0  0  0  0  0
    2.0693   -3.3104    0.0000 C   0  0  0  0  0  0  0  0  0  0  0  0
    1.9285   -1.8170    0.0000 C   0  0  0  0  0  0  0  0  0  0  0  0
    3.1514   -0.9484    0.0000 N   0  0  0  0  0  0  0  0  0  0  0  0
    4.5151   -1.5731    0.0000 C   0  0  0  0  0  0  0  0  0  0  0  0
    5.7380   -0.7045    0.0000 C   0  0  0  0  0  0  0  0  0  0  0  0
    5.5971    0.7889    0.0000 N   0  0  0  0  0  0  0  0  0  0  0  0
    6.8200    1.6575    0.0000 C   0  0  0  0  0  0  0  0  0  0  0  0
    6.8361    3.1575    0.0000 C   0  0  0  0  0  0  0  0  0  0  0  0
    8.2676    3.6057    0.0000 C   0  0  0  0  0  0  0  0  0  0  0  0
    9.1362    2.3828    0.0000 C   0  0  0  0  0  0  0  0  0  0  0  0
    8.2416    1.1788    0.0000 C   0  0  0  0  0  0  0  0  0  0  0  0
    4.2334    1.4136    0.0000 C   0  0  0  0  0  0  0  0  0  0  0  0
    3.0105    0.5450    0.0000 C   0  0  0  0  0  0  0  0  0  0  0  0
    0.5647   -1.1922    0.0000 C   0  0  0  0  0  0  0  0  0  0  0  0
   -0.6581   -2.0609    0.0000 C   0  0  0  0  0  0  0  0  0  0  0  0
   -2.0219   -1.4361    0.0000 C   0  0  0  0  0  0  0  0  0  0  0  0
  1  2  2  0
  2  3  1  0
  3  4  1  0
  4  5  1  0
  5  6  2  0
  6  7  1  0
  7  8  2  0
  8  9  1  0
  9 10  2  0
  2 11  1  0
 11 12  1  0
 12 13  1  0
 13 14  1  0
 14 15  2  0
 15 16  1  0
 16 17  2  0
 17 18  1  0
 18 19  1  0
 19 20  1  0
 20 21  1  0
 21 22  1  0
 22 23  1  0
 23 24  1  0
 24 25  1  0
 25 26  1  0
 21 27  1  0
 27 28  1  0
 17 29  1  0
 29 30  2  0
 30 31  1  0
 10  5  1  0
 31 11  1  0
 30 14  1  0
 28 18  1  0
 26 22  1  0
M  END
>  <Compound_Key>  (1196) 
37

>  <Ki>  (1196) 
2.7

>  <database>  (1196) 
NewLiterature

>  <Document_ChEMBL_ID>  (1196) 
10.1016/j.bioorg.2021.105163

$$$$

     RDKit          2D

 21 23  0  0  0  0  0  0  0  0999 V2000
   -5.7199   -2.5061    0.0000 C   0  0  0  0  0  0  0  0  0  0  0  0
   -4.6183   -1.4881    0.0000 N   0  0  0  0  0  0  0  0  0  0  0  0
   -4.9490   -0.0251    0.0000 C   0  0  0  0  0  0  0  0  0  0  0  0
   -3.1858   -1.9332    0.0000 C   0  0  0  0  0  0  0  0  0  0  0  0
   -2.0841   -0.9152    0.0000 C   0  0  0  0  0  0  0  0  0  0  0  0
   -0.6517   -1.3602    0.0000 C   0  0  0  0  0  0  0  0  0  0  0  0
    0.4500   -0.3422    0.0000 N   0  0  0  0  0  0  0  0  0  0  0  0
    1.8452   -0.8931    0.0000 C   0  0  0  0  0  0  0  0  0  0  0  0
    1.8421   -2.3931    0.0000 C   0  0  0  0  0  0  0  0  0  0  0  0
    3.1396   -3.1457    0.0000 C   0  0  0  0  0  0  0  0  0  0  0  0
    4.4402   -2.3984    0.0000 C   0  0  0  0  0  0  0  0  0  0  0  0
    4.4432   -0.8984    0.0000 C   0  0  0  0  0  0  0  0  0  0  0  0
    3.1457   -0.1457    0.0000 C   0  0  0  0  0  0  0  0  0  0  0  0
    3.3723    1.3370    0.0000 C   0  0  0  0  0  0  0  0  0  0  0  0
    2.3543    2.4387    0.0000 C   0  0  0  0  0  0  0  0  0  0  0  0
    0.8583    2.3297    0.0000 C   0  0  0  0  0  0  0  0  0  0  0  0
    0.2102    3.6824    0.0000 C   0  0  0  0  0  0  0  0  0  0  0  0
   -1.2854    3.7976    0.0000 C   0  0  0  0  0  0  0  0  0  0  0  0
   -2.1329    2.5600    0.0000 C   0  0  0  0  0  0  0  0  0  0  0  0
   -1.4848    1.2072    0.0000 C   0  0  0  0  0  0  0  0  0  0  0  0
    0.0108    1.0920    0.0000 C   0  0  0  0  0  0  0  0  0  0  0  0
  1  2  1  0
  2  3  1  0
  2  4  1  0
  4  5  1  0
  5  6  1  0
  6  7  1  0
  7  8  1  0
  8  9  2  0
  9 10  1  0
 10 11  2  0
 11 12  1  0
 12 13  2  0
 13 14  1  0
 14 15  1  0
 15 16  1  0
 16 17  2  0
 17 18  1  0
 18 19  2  0
 19 20  1  0
 20 21  2  0
 21  7  1  0
 13  8  1  0
 21 16  1  0
M  END
>  <Compound_Key>  (1197) 
Imipramine

>  <Ki>  (1197) 
2107.0

>  <database>  (1197) 
NewLiterature

>  <Document_ChEMBL_ID>  (1197) 
10.3390/ijms22126359

$$$$

     RDKit          2D

 22 23  0  0  0  0  0  0  0  0999 V2000
   -7.0918   -0.3366    0.0000 C   0  0  0  0  0  0  0  0  0  0  0  0
   -5.9155   -1.2675    0.0000 N   0  0  0  0  0  0  0  0  0  0  0  0
   -4.5213   -0.7142    0.0000 C   0  0  0  0  0  0  0  0  0  0  0  0
   -3.3450   -1.6450    0.0000 C   0  0  0  0  0  0  0  0  0  0  0  0
   -1.9508   -1.0917    0.0000 C   0  0  0  0  0  0  0  0  0  0  0  0
   -0.7745   -2.0226    0.0000 O   0  0  0  0  0  0  0  0  0  0  0  0
    0.6197   -1.4693    0.0000 C   0  0  0  0  0  0  0  0  0  0  0  0
    1.7960   -2.4001    0.0000 C   0  0  0  0  0  0  0  0  0  0  0  0
    3.1902   -1.8468    0.0000 C   0  0  0  0  0  0  0  0  0  0  0  0
    3.4082   -0.3628    0.0000 C   0  0  0  0  0  0  0  0  0  0  0  0
    4.8024    0.1905    0.0000 C   0  0  0  0  0  0  0  0  0  0  0  0
    6.1967    0.7438    0.0000 F   0  0  0  0  0  0  0  0  0  0  0  0
    5.3557   -1.2037    0.0000 F   0  0  0  0  0  0  0  0  0  0  0  0
    4.2492    1.5847    0.0000 F   0  0  0  0  0  0  0  0  0  0  0  0
    2.2319    0.5681    0.0000 C   0  0  0  0  0  0  0  0  0  0  0  0
    0.8377    0.0148    0.0000 C   0  0  0  0  0  0  0  0  0  0  0  0
   -1.7328    0.3923    0.0000 C   0  0  0  0  0  0  0  0  0  0  0  0
   -0.3386    0.9456    0.0000 C   0  0  0  0  0  0  0  0  0  0  0  0
   -0.1206    2.4297    0.0000 C   0  0  0  0  0  0  0  0  0  0  0  0
   -1.2968    3.3605    0.0000 C   0  0  0  0  0  0  0  0  0  0  0  0
   -2.6911    2.8072    0.0000 C   0  0  0  0  0  0  0  0  0  0  0  0
   -2.9091    1.3231    0.0000 C   0  0  0  0  0  0  0  0  0  0  0  0
  1  2  1  0
  2  3  1  0
  3  4  1  0
  4  5  1  0
  5  6  1  0
  6  7  1  0
  7  8  2  0
  8  9  1  0
  9 10  2  0
 10 11  1  0
 11 12  1  0
 11 13  1  0
 11 14  1  0
 10 15  1  0
 15 16  2  0
  5 17  1  0
 17 18  2  0
 18 19  1  0
 19 20  2  0
 20 21  1  0
 21 22  2  0
 16  7  1  0
 22 17  1  0
M  END
>  <Compound_Key>  (1198) 
Fluoxetine

>  <Ki>  (1198) 
16100.0

>  <database>  (1198) 
NewLiterature

>  <Document_ChEMBL_ID>  (1198) 
10.3390/ijms22126359

$$$$

     RDKit          2D

 22 22  0  0  0  0  0  0  0  0999 V2000
    7.2903    3.0873    0.0000 C   0  0  0  0  0  0  0  0  0  0  0  0
    5.7961    3.2200    0.0000 O   0  0  0  0  0  0  0  0  0  0  0  0
    4.9342    1.9923    0.0000 C   0  0  0  0  0  0  0  0  0  0  0  0
    3.4401    2.1250    0.0000 C   0  0  0  0  0  0  0  0  0  0  0  0
    2.5781    0.8974    0.0000 C   0  0  0  0  0  0  0  0  0  0  0  0
    1.0840    1.0301    0.0000 C   0  0  0  0  0  0  0  0  0  0  0  0
    0.2220   -0.1976    0.0000 C   0  0  0  0  0  0  0  0  0  0  0  0
    0.8542   -1.5578    0.0000 N   0  0  0  0  0  0  0  0  0  0  0  0
    2.3483   -1.6905    0.0000 O   0  0  0  0  0  0  0  0  0  0  0  0
    2.9805   -3.0508    0.0000 C   0  0  0  0  0  0  0  0  0  0  0  0
    4.4746   -3.1835    0.0000 C   0  0  0  0  0  0  0  0  0  0  0  0
    5.1068   -4.5437    0.0000 N   0  0  0  0  0  0  0  0  0  0  0  0
   -1.2721   -0.0649    0.0000 C   0  0  0  0  0  0  0  0  0  0  0  0
   -2.1340   -1.2925    0.0000 C   0  0  0  0  0  0  0  0  0  0  0  0
   -3.6282   -1.1598    0.0000 C   0  0  0  0  0  0  0  0  0  0  0  0
   -4.2603    0.2004    0.0000 C   0  0  0  0  0  0  0  0  0  0  0  0
   -5.7545    0.3331    0.0000 C   0  0  0  0  0  0  0  0  0  0  0  0
   -7.2486    0.4658    0.0000 F   0  0  0  0  0  0  0  0  0  0  0  0
   -5.6218    1.8272    0.0000 F   0  0  0  0  0  0  0  0  0  0  0  0
   -5.8871   -1.1610    0.0000 F   0  0  0  0  0  0  0  0  0  0  0  0
   -3.3984    1.4281    0.0000 C   0  0  0  0  0  0  0  0  0  0  0  0
   -1.9043    1.2954    0.0000 C   0  0  0  0  0  0  0  0  0  0  0  0
  1  2  1  0
  2  3  1  0
  3  4  1  0
  4  5  1  0
  5  6  1  0
  6  7  1  0
  7  8  2  0
  8  9  1  0
  9 10  1  0
 10 11  1  0
 11 12  1  0
  7 13  1  0
 13 14  2  0
 14 15  1  0
 15 16  2  0
 16 17  1  0
 17 18  1  0
 17 19  1  0
 17 20  1  0
 16 21  1  0
 21 22  2  0
 22 13  1  0
M  END
>  <Compound_Key>  (1199) 
Fluvoxamine

>  <Ki>  (1199) 
8439.0

>  <database>  (1199) 
NewLiterature

>  <Document_ChEMBL_ID>  (1199) 
10.3390/ijms22126359

$$$$

     RDKit          2D

 20 22  0  0  0  0  0  0  0  0999 V2000
    5.3845    2.1513    0.0000 C   0  0  0  0  0  0  0  0  0  0  0  0
    4.6678    0.8336    0.0000 N   0  0  0  0  0  0  0  0  0  0  0  0
    3.1683    0.7954    0.0000 C   0  0  0  0  0  0  0  0  0  0  0  0
    2.3855    2.0749    0.0000 C   0  0  0  0  0  0  0  0  0  0  0  0
    0.8859    2.0367    0.0000 C   0  0  0  0  0  0  0  0  0  0  0  0
    0.1693    0.7190    0.0000 C   0  0  0  0  0  0  0  0  0  0  0  0
   -1.3303    0.6808    0.0000 C   0  0  0  0  0  0  0  0  0  0  0  0
   -2.1131    1.9604    0.0000 C   0  0  0  0  0  0  0  0  0  0  0  0
   -3.6126    1.9222    0.0000 C   0  0  0  0  0  0  0  0  0  0  0  0
   -4.3293    0.6045    0.0000 C   0  0  0  0  0  0  0  0  0  0  0  0
   -5.8288    0.5663    0.0000 Cl  0  0  0  0  0  0  0  0  0  0  0  0
   -3.5465   -0.6751    0.0000 C   0  0  0  0  0  0  0  0  0  0  0  0
   -4.2632   -1.9928    0.0000 Cl  0  0  0  0  0  0  0  0  0  0  0  0
   -2.0470   -0.6369    0.0000 C   0  0  0  0  0  0  0  0  0  0  0  0
    0.9521   -0.5605    0.0000 C   0  0  0  0  0  0  0  0  0  0  0  0
    0.2354   -1.8782    0.0000 C   0  0  0  0  0  0  0  0  0  0  0  0
    1.0182   -3.1577    0.0000 C   0  0  0  0  0  0  0  0  0  0  0  0
    2.5177   -3.1196    0.0000 C   0  0  0  0  0  0  0  0  0  0  0  0
    3.2344   -1.8019    0.0000 C   0  0  0  0  0  0  0  0  0  0  0  0
    2.4516   -0.5223    0.0000 C   0  0  0  0  0  0  0  0  0  0  0  0
  1  2  1  0
  3  2  1  6
  3  4  1  0
  4  5  1  0
  5  6  1  0
  6  7  1  6
  7  8  2  0
  8  9  1  0
  9 10  2  0
 10 11  1  0
 10 12  1  0
 12 13  1  0
 12 14  2  0
  6 15  1  0
 15 16  2  0
 16 17  1  0
 17 18  2  0
 18 19  1  0
 19 20  2  0
 20  3  1  0
 14  7  1  0
 20 15  1  0
M  END
>  <Compound_Key>  (1200) 
Sertraline

>  <Ki>  (1200) 
5297.0

>  <database>  (1200) 
NewLiterature

>  <Document_ChEMBL_ID>  (1200) 
10.3390/ijms22126359

$$$$

     RDKit          2D

 23 26  0  0  0  0  0  0  0  0999 V2000
   -6.2880    0.1477    0.0000 C   0  0  0  0  0  0  0  0  0  0  0  0
   -4.8818    0.6700    0.0000 C   0  0  0  0  0  0  0  0  0  0  0  0
   -4.6310    2.1488    0.0000 O   0  0  0  0  0  0  0  0  0  0  0  0
   -3.7265   -0.2867    0.0000 C   0  0  0  0  0  0  0  0  0  0  0  0
   -3.8214   -1.7837    0.0000 C   0  0  0  0  0  0  0  0  0  0  0  0
   -2.4270   -2.3365    0.0000 C   0  0  0  0  0  0  0  0  0  0  0  0
   -1.4703   -1.1812    0.0000 C   0  0  0  0  0  0  0  0  0  0  0  0
    0.0284   -1.1191    0.0000 C   0  0  0  0  0  0  0  0  0  0  0  0
    0.8316   -2.3860    0.0000 C   0  0  0  0  0  0  0  0  0  0  0  0
    2.3303   -2.3238    0.0000 C   0  0  0  0  0  0  0  0  0  0  0  0
    3.0258   -0.9949    0.0000 C   0  0  0  0  0  0  0  0  0  0  0  0
    4.5246   -0.9327    0.0000 C   0  0  0  0  0  0  0  0  0  0  0  0
    5.2201    0.3962    0.0000 C   0  0  0  0  0  0  0  0  0  0  0  0
    6.7188    0.4584    0.0000 O   0  0  0  0  0  0  0  0  0  0  0  0
    4.4170    1.6631    0.0000 C   0  0  0  0  0  0  0  0  0  0  0  0
    2.9183    1.6010    0.0000 C   0  0  0  0  0  0  0  0  0  0  0  0
    2.2227    0.2720    0.0000 C   0  0  0  0  0  0  0  0  0  0  0  0
    1.4195    1.5389    0.0000 C   0  0  0  0  0  0  0  0  0  0  0  0
    0.7240    0.2099    0.0000 C   0  0  0  0  0  0  0  0  0  0  0  0
   -0.0792    1.4768    0.0000 C   0  0  0  0  0  0  0  0  0  0  0  0
   -1.5779    1.4146    0.0000 C   0  0  0  0  0  0  0  0  0  0  0  0
   -2.2734    0.0856    0.0000 C   0  0  0  0  0  0  0  0  0  0  0  0
   -3.2046    1.2616    0.0000 C   0  0  0  0  0  0  0  0  0  0  0  0
  1  2  1  0
  2  3  2  0
  4  2  1  6
  4  5  1  0
  5  6  1  0
  7  6  1  6
  7  8  1  0
  8  9  1  1
  9 10  1  0
 10 11  1  0
 11 12  2  0
 12 13  1  0
 13 14  2  0
 13 15  1  0
 15 16  1  0
 16 17  1  0
 17 18  1  6
 17 19  1  0
 19 20  1  6
 20 21  1  0
 21 22  1  0
 22 23  1  6
 22  4  1  0
 22  7  1  0
 19  8  1  0
 17 11  1  0
M  END
>  <Compound_Key>  (1201) 
Progesterone

>  <Ki>  (1201) 
441.0

>  <database>  (1201) 
NewLiterature

>  <Document_ChEMBL_ID>  (1201) 
10.3390/ijms22126359

$$$$

     RDKit          2D

 27 29  0  0  0  0  0  0  0  0999 V2000
   -9.8893    0.4719    0.0000 C   0  0  0  0  0  0  0  0  0  0  0  0
   -8.8054   -0.5650    0.0000 O   0  0  0  0  0  0  0  0  0  0  0  0
   -7.3655   -0.1448    0.0000 C   0  0  0  0  0  0  0  0  0  0  0  0
   -7.0095    1.3123    0.0000 C   0  0  0  0  0  0  0  0  0  0  0  0
   -5.5695    1.7326    0.0000 C   0  0  0  0  0  0  0  0  0  0  0  0
   -4.4856    0.6957    0.0000 C   0  0  0  0  0  0  0  0  0  0  0  0
   -3.0457    1.1159    0.0000 C   0  0  0  0  0  0  0  0  0  0  0  0
   -1.9618    0.0790    0.0000 C   0  0  0  0  0  0  0  0  0  0  0  0
   -0.5219    0.4992    0.0000 N   0  0  0  0  0  0  0  0  0  0  0  0
    0.5620   -0.5377    0.0000 C   0  0  0  0  0  0  0  0  0  0  0  0
    2.0020   -0.1174    0.0000 C   0  0  0  0  0  0  0  0  0  0  0  0
    2.3580    1.3397    0.0000 N   0  0  0  0  0  0  0  0  0  0  0  0
    3.7979    1.7600    0.0000 C   0  0  0  0  0  0  0  0  0  0  0  0
    4.8818    0.7231    0.0000 C   0  0  0  0  0  0  0  0  0  0  0  0
    6.3217    1.1433    0.0000 C   0  0  0  0  0  0  0  0  0  0  0  0
    7.4056    0.1064    0.0000 C   0  0  0  0  0  0  0  0  0  0  0  0
    7.0496   -1.3507    0.0000 C   0  0  0  0  0  0  0  0  0  0  0  0
    8.1335   -2.3876    0.0000 C   0  0  0  0  0  0  0  0  0  0  0  0
    9.5734   -1.9674    0.0000 C   0  0  0  0  0  0  0  0  0  0  0  0
    9.9295   -0.5103    0.0000 C   0  0  0  0  0  0  0  0  0  0  0  0
    8.8456    0.5266    0.0000 C   0  0  0  0  0  0  0  0  0  0  0  0
    1.2741    2.3766    0.0000 C   0  0  0  0  0  0  0  0  0  0  0  0
   -0.1658    1.9564    0.0000 C   0  0  0  0  0  0  0  0  0  0  0  0
   -4.8417   -0.7615    0.0000 C   0  0  0  0  0  0  0  0  0  0  0  0
   -6.2816   -1.1817    0.0000 C   0  0  0  0  0  0  0  0  0  0  0  0
   -6.6376   -2.6388    0.0000 O   0  0  0  0  0  0  0  0  0  0  0  0
   -5.5537   -3.6757    0.0000 O   0  0  0  0  0  0  0  0  0  0  0  0
  1  2  1  0
  2  3  1  0
  3  4  2  0
  4  5  1  0
  5  6  2  0
  6  7  1  0
  7  8  1  0
  8  9  1  0
  9 10  1  0
 10 11  1  0
 11 12  1  0
 12 13  1  0
 13 14  1  0
 14 15  1  0
 15 16  1  0
 16 17  2  0
 17 18  1  0
 18 19  2  0
 19 20  1  0
 20 21  2  0
 12 22  1  0
 22 23  1  0
  6 24  1  0
 24 25  2  0
 25 26  1  0
 26 27  1  0
 25  3  1  0
 23  9  1  0
 21 16  1  0
M  END
>  <Compound_Key>  (1202) 
SA4503

>  <Ki>  (1202) 
63.09

>  <database>  (1202) 
NewLiterature

>  <Document_ChEMBL_ID>  (1202) 
10.3390/ijms22126359

$$$$

     RDKit          2D

 28 31  0  0  0  0  0  0  0  0999 V2000
   -8.5319    0.7624    0.0000 C   0  0  0  0  0  0  0  0  0  0  0  0
   -7.6010   -0.4137    0.0000 O   0  0  0  0  0  0  0  0  0  0  0  0
   -6.1169   -0.1956    0.0000 C   0  0  0  0  0  0  0  0  0  0  0  0
   -5.5638    1.1987    0.0000 C   0  0  0  0  0  0  0  0  0  0  0  0
   -4.0797    1.4168    0.0000 C   0  0  0  0  0  0  0  0  0  0  0  0
   -3.1488    0.2406    0.0000 C   0  0  0  0  0  0  0  0  0  0  0  0
   -3.7019   -1.1537    0.0000 C   0  0  0  0  0  0  0  0  0  0  0  0
   -5.1860   -1.3718    0.0000 C   0  0  0  0  0  0  0  0  0  0  0  0
   -5.7391   -2.7661    0.0000 O   0  0  0  0  0  0  0  0  0  0  0  0
   -4.8082   -3.9423    0.0000 C   0  0  0  0  0  0  0  0  0  0  0  0
   -1.6648    0.4587    0.0000 C   0  0  0  0  0  0  0  0  0  0  0  0
   -1.1116    1.8530    0.0000 N   0  0  0  0  0  0  0  0  0  0  0  0
    0.3724    2.0711    0.0000 C   0  0  0  0  0  0  0  0  0  0  0  0
    1.3034    0.8949    0.0000 C   0  0  0  0  0  0  0  0  0  0  0  0
    2.7874    1.1131    0.0000 C   0  0  0  0  0  0  0  0  0  0  0  0
    3.7183   -0.0631    0.0000 N   0  0  0  0  0  0  0  0  0  0  0  0
    3.1652   -1.4574    0.0000 C   0  0  0  0  0  0  0  0  0  0  0  0
    1.6811   -1.6755    0.0000 O   0  0  0  0  0  0  0  0  0  0  0  0
    4.0961   -2.6336    0.0000 C   0  0  0  0  0  0  0  0  0  0  0  0
    5.5802   -2.4155    0.0000 C   0  0  0  0  0  0  0  0  0  0  0  0
    6.1333   -1.0212    0.0000 C   0  0  0  0  0  0  0  0  0  0  0  0
    7.6174   -0.8031    0.0000 C   0  0  0  0  0  0  0  0  0  0  0  0
    8.1705    0.5912    0.0000 C   0  0  0  0  0  0  0  0  0  0  0  0
    7.2396    1.7674    0.0000 C   0  0  0  0  0  0  0  0  0  0  0  0
    5.7555    1.5493    0.0000 C   0  0  0  0  0  0  0  0  0  0  0  0
    5.2024    0.1550    0.0000 C   0  0  0  0  0  0  0  0  0  0  0  0
   -2.0425    3.0292    0.0000 C   0  0  0  0  0  0  0  0  0  0  0  0
   -3.5266    2.8111    0.0000 C   0  0  0  0  0  0  0  0  0  0  0  0
  1  2  1  0
  2  3  1  0
  3  4  2  0
  4  5  1  0
  5  6  2  0
  6  7  1  0
  7  8  2  0
  8  9  1  0
  9 10  1  0
  6 11  1  0
 11 12  1  0
 12 13  1  0
 13 14  1  0
 14 15  1  0
 15 16  1  0
 16 17  1  0
 17 18  2  0
 17 19  1  0
 19 20  1  0
 20 21  1  0
 21 22  2  0
 22 23  1  0
 23 24  2  0
 24 25  1  0
 25 26  2  0
 12 27  1  0
 27 28  1  0
  8  3  1  0
 26 16  1  0
 28  5  1  0
 26 21  1  0
M  END
>  <Compound_Key>  (1203) 
34

>  <Ki>  (1203) 
7.11

>  <database>  (1203) 
NewLiterature

>  <Document_ChEMBL_ID>  (1203) 
10.1016/j.bioorg.2021.105163

$$$$

     RDKit          2D

 19 20  0  0  0  0  0  0  0  0999 V2000
    7.2046   -1.5162    0.0000 C   0  0  0  0  0  0  0  0  0  0  0  0
    5.7179   -1.3172    0.0000 C   0  0  0  0  0  0  0  0  0  0  0  0
    5.1469    0.0699    0.0000 C   0  0  0  0  0  0  0  0  0  0  0  0
    3.6601    0.2689    0.0000 N   0  0  0  0  0  0  0  0  0  0  0  0
    2.7444   -0.9192    0.0000 C   0  0  0  0  0  0  0  0  0  0  0  0
    1.2577   -0.7202    0.0000 C   0  0  0  0  0  0  0  0  0  0  0  0
    0.6866    0.6669    0.0000 C   0  0  0  0  0  0  0  0  0  0  0  0
   -0.8001    0.8659    0.0000 C   0  0  0  0  0  0  0  0  0  0  0  0
   -1.3711    2.2529    0.0000 C   0  0  0  0  0  0  0  0  0  0  0  0
   -2.8579    2.4519    0.0000 C   0  0  0  0  0  0  0  0  0  0  0  0
   -3.7736    1.2639    0.0000 C   0  0  0  0  0  0  0  0  0  0  0  0
   -3.2025   -0.1232    0.0000 C   0  0  0  0  0  0  0  0  0  0  0  0
   -4.1183   -1.3112    0.0000 S   0  0  0  0  0  0  0  0  0  0  0  0
   -5.0340   -2.4993    0.0000 C   0  0  0  0  0  0  0  0  0  0  0  0
   -2.9302   -2.2269    0.0000 O   0  0  0  0  0  0  0  0  0  0  0  0
   -5.3063   -0.3955    0.0000 O   0  0  0  0  0  0  0  0  0  0  0  0
   -1.7158   -0.3222    0.0000 C   0  0  0  0  0  0  0  0  0  0  0  0
    1.6024    1.8549    0.0000 C   0  0  0  0  0  0  0  0  0  0  0  0
    3.0891    1.6559    0.0000 C   0  0  0  0  0  0  0  0  0  0  0  0
  1  2  1  0
  2  3  1  0
  3  4  1  0
  4  5  1  0
  5  6  1  0
  6  7  1  0
  7  8  1  0
  8  9  2  0
  9 10  1  0
 10 11  2  0
 11 12  1  0
 12 13  1  0
 13 14  1  0
 13 15  2  0
 13 16  2  0
 12 17  2  0
  7 18  1  0
 18 19  1  0
 19  4  1  0
 17  8  1  0
M  END
>  <Compound_Key>  (1204) 
Pridopidine

>  <Ki>  (1204) 
5450.0

>  <database>  (1204) 
NewLiterature

>  <Document_ChEMBL_ID>  (1204) 
10.3390/ijms22126359

$$$$

     RDKit          2D

 17 18  0  0  0  0  0  0  0  0999 V2000
   -6.6799   -0.2103    0.0000 C   0  0  0  0  0  0  0  0  0  0  0  0
   -5.1892   -0.0432    0.0000 N   0  0  0  0  0  0  0  0  0  0  0  0
   -4.5885    1.3312    0.0000 C   0  0  0  0  0  0  0  0  0  0  0  0
   -3.0979    1.4983    0.0000 C   0  0  0  0  0  0  0  0  0  0  0  0
   -2.2079    0.2908    0.0000 N   0  0  0  0  0  0  0  0  0  0  0  0
   -0.7172    0.4579    0.0000 C   0  0  0  0  0  0  0  0  0  0  0  0
    0.1728   -0.7496    0.0000 C   0  0  0  0  0  0  0  0  0  0  0  0
    1.6634   -0.5825    0.0000 C   0  0  0  0  0  0  0  0  0  0  0  0
    2.5534   -1.7900    0.0000 C   0  0  0  0  0  0  0  0  0  0  0  0
    4.0441   -1.6229    0.0000 C   0  0  0  0  0  0  0  0  0  0  0  0
    4.6448   -0.2485    0.0000 C   0  0  0  0  0  0  0  0  0  0  0  0
    6.1355   -0.0814    0.0000 Cl  0  0  0  0  0  0  0  0  0  0  0  0
    3.7548    0.9590    0.0000 C   0  0  0  0  0  0  0  0  0  0  0  0
    4.3555    2.3335    0.0000 Cl  0  0  0  0  0  0  0  0  0  0  0  0
    2.2641    0.7920    0.0000 C   0  0  0  0  0  0  0  0  0  0  0  0
   -2.8086   -1.0836    0.0000 C   0  0  0  0  0  0  0  0  0  0  0  0
   -4.2992   -1.2507    0.0000 C   0  0  0  0  0  0  0  0  0  0  0  0
  1  2  1  0
  2  3  1  0
  3  4  1  0
  4  5  1  0
  5  6  1  0
  6  7  1  0
  7  8  1  0
  8  9  2  0
  9 10  1  0
 10 11  2  0
 11 12  1  0
 11 13  1  0
 13 14  1  0
 13 15  2  0
  5 16  1  0
 16 17  1  0
 17  2  1  0
 15  8  1  0
M  END
>  <Compound_Key>  (1205) 
BD1063

>  <Ki>  (1205) 
449.0

>  <database>  (1205) 
NewLiterature

>  <Document_ChEMBL_ID>  (1205) 
10.3390/ijms22126359

$$$$

     RDKit          2D

 27 29  0  0  0  0  0  0  0  0999 V2000
   -8.3071    0.8690    0.0000 C   0  0  0  0  0  0  0  0  0  0  0  0
   -7.4041   -0.3288    0.0000 O   0  0  0  0  0  0  0  0  0  0  0  0
   -5.9153   -0.1457    0.0000 C   0  0  0  0  0  0  0  0  0  0  0  0
   -5.3295    1.2351    0.0000 C   0  0  0  0  0  0  0  0  0  0  0  0
   -3.8407    1.4182    0.0000 C   0  0  0  0  0  0  0  0  0  0  0  0
   -2.9378    0.2204    0.0000 C   0  0  0  0  0  0  0  0  0  0  0  0
   -3.5236   -1.1604    0.0000 C   0  0  0  0  0  0  0  0  0  0  0  0
   -5.0124   -1.3435    0.0000 C   0  0  0  0  0  0  0  0  0  0  0  0
   -5.5982   -2.7244    0.0000 O   0  0  0  0  0  0  0  0  0  0  0  0
   -4.6953   -3.9222    0.0000 C   0  0  0  0  0  0  0  0  0  0  0  0
   -1.4490    0.4035    0.0000 C   0  0  0  0  0  0  0  0  0  0  0  0
   -0.8631    1.7844    0.0000 N   0  0  0  0  0  0  0  0  0  0  0  0
    0.6256    1.9675    0.0000 C   0  0  0  0  0  0  0  0  0  0  0  0
    1.5286    0.7697    0.0000 C   0  0  0  0  0  0  0  0  0  0  0  0
    3.0174    0.9528    0.0000 C   0  0  0  0  0  0  0  0  0  0  0  0
    3.9203   -0.2450    0.0000 N   0  0  0  0  0  0  0  0  0  0  0  0
    3.3345   -1.6259    0.0000 C   0  0  0  0  0  0  0  0  0  0  0  0
    1.8457   -1.8090    0.0000 C   0  0  0  0  0  0  0  0  0  0  0  0
    4.2374   -2.8237    0.0000 O   0  0  0  0  0  0  0  0  0  0  0  0
    5.4091   -0.0619    0.0000 C   0  0  0  0  0  0  0  0  0  0  0  0
    6.3121   -1.2597    0.0000 C   0  0  0  0  0  0  0  0  0  0  0  0
    7.8008   -1.0766    0.0000 C   0  0  0  0  0  0  0  0  0  0  0  0
    8.3867    0.3042    0.0000 C   0  0  0  0  0  0  0  0  0  0  0  0
    7.4837    1.5020    0.0000 C   0  0  0  0  0  0  0  0  0  0  0  0
    5.9950    1.3189    0.0000 C   0  0  0  0  0  0  0  0  0  0  0  0
   -1.7661    2.9822    0.0000 C   0  0  0  0  0  0  0  0  0  0  0  0
   -3.2549    2.7991    0.0000 C   0  0  0  0  0  0  0  0  0  0  0  0
  1  2  1  0
  2  3  1  0
  3  4  2  0
  4  5  1  0
  5  6  2  0
  6  7  1  0
  7  8  2  0
  8  9  1  0
  9 10  1  0
  6 11  1  0
 11 12  1  0
 12 13  1  0
 13 14  1  0
 14 15  1  0
 15 16  1  0
 16 17  1  0
 17 18  1  0
 17 19  2  0
 16 20  1  0
 20 21  2  0
 21 22  1  0
 22 23  2  0
 23 24  1  0
 24 25  2  0
 12 26  1  0
 26 27  1  0
  8  3  1  0
 25 20  1  0
 27  5  1  0
M  END
>  <Compound_Key>  (1206) 
80

>  <Ki>  (1206) 
92.8

>  <database>  (1206) 
NewLiterature

>  <Document_ChEMBL_ID>  (1206) 
10.1021/acs.jmedchem.0c02265

$$$$

     RDKit          2D

 34 36  0  0  0  0  0  0  0  0999 V2000
  -10.8309    0.8097    0.0000 C   0  0  0  0  0  0  0  0  0  0  0  0
   -9.9566   -0.4091    0.0000 O   0  0  0  0  0  0  0  0  0  0  0  0
   -8.4639   -0.2615    0.0000 C   0  0  0  0  0  0  0  0  0  0  0  0
   -7.8454    1.1051    0.0000 C   0  0  0  0  0  0  0  0  0  0  0  0
   -6.3527    1.2528    0.0000 C   0  0  0  0  0  0  0  0  0  0  0  0
   -5.4785    0.0339    0.0000 C   0  0  0  0  0  0  0  0  0  0  0  0
   -6.0969   -1.3327    0.0000 C   0  0  0  0  0  0  0  0  0  0  0  0
   -7.5897   -1.4804    0.0000 C   0  0  0  0  0  0  0  0  0  0  0  0
   -8.2081   -2.8469    0.0000 O   0  0  0  0  0  0  0  0  0  0  0  0
   -7.3339   -4.0658    0.0000 C   0  0  0  0  0  0  0  0  0  0  0  0
   -3.9858    0.1816    0.0000 C   0  0  0  0  0  0  0  0  0  0  0  0
   -3.3673    1.5481    0.0000 N   0  0  0  0  0  0  0  0  0  0  0  0
   -1.8746    1.6958    0.0000 C   0  0  0  0  0  0  0  0  0  0  0  0
   -1.0003    0.4769    0.0000 C   0  0  0  0  0  0  0  0  0  0  0  0
    0.4924    0.6246    0.0000 C   0  0  0  0  0  0  0  0  0  0  0  0
    1.3666   -0.5943    0.0000 C   0  0  0  0  0  0  0  0  0  0  0  0
    2.8593   -0.4466    0.0000 N   0  0  0  0  0  0  0  0  0  0  0  0
    3.7336   -1.6655    0.0000 C   0  0  0  0  0  0  0  0  0  0  0  0
    3.1151   -3.0320    0.0000 O   0  0  0  0  0  0  0  0  0  0  0  0
    5.2263   -1.5178    0.0000 C   0  0  0  0  0  0  0  0  0  0  0  0
    6.1005   -2.7367    0.0000 C   0  0  0  0  0  0  0  0  0  0  0  0
    7.5933   -2.5890    0.0000 C   0  0  0  0  0  0  0  0  0  0  0  0
    8.4675   -3.8079    0.0000 I   0  0  0  0  0  0  0  0  0  0  0  0
    8.2117   -1.2224    0.0000 C   0  0  0  0  0  0  0  0  0  0  0  0
    7.3375   -0.0036    0.0000 C   0  0  0  0  0  0  0  0  0  0  0  0
    7.9559    1.3630    0.0000 O   0  0  0  0  0  0  0  0  0  0  0  0
    9.4486    1.5107    0.0000 C   0  0  0  0  0  0  0  0  0  0  0  0
    5.8448   -0.1512    0.0000 C   0  0  0  0  0  0  0  0  0  0  0  0
    4.9705    1.0677    0.0000 O   0  0  0  0  0  0  0  0  0  0  0  0
    5.5890    2.4342    0.0000 C   0  0  0  0  0  0  0  0  0  0  0  0
    4.7147    3.6531    0.0000 C   0  0  0  0  0  0  0  0  0  0  0  0
    5.3332    5.0197    0.0000 F   0  0  0  0  0  0  0  0  0  0  0  0
   -4.2416    2.7670    0.0000 C   0  0  0  0  0  0  0  0  0  0  0  0
   -5.7343    2.6193    0.0000 C   0  0  0  0  0  0  0  0  0  0  0  0
  1  2  1  0
  2  3  1  0
  3  4  2  0
  4  5  1  0
  5  6  2  0
  6  7  1  0
  7  8  2  0
  8  9  1  0
  9 10  1  0
  6 11  1  0
 11 12  1  0
 12 13  1  0
 13 14  1  0
 14 15  1  0
 15 16  1  0
 16 17  1  0
 17 18  1  0
 18 19  2  0
 18 20  1  0
 20 21  2  0
 21 22  1  0
 22 23  1  0
 22 24  2  0
 24 25  1  0
 25 26  1  0
 26 27  1  0
 25 28  2  0
 28 29  1  0
 29 30  1  0
 30 31  1  0
 31 32  1  0
 12 33  1  0
 33 34  1  0
  8  3  1  0
 28 20  1  0
 34  5  1  0
M  END
>  <ChemBL_ID>  (1207) 
CHEMBL227071

>  <Ki>  (1207) 
0.26

>  <database>  (1207) 
SRSLDB

$$$$

     RDKit          2D

 22 24  0  0  0  0  0  0  0  0999 V2000
   -8.7414   -0.8591    0.0000 F   0  0  0  0  0  0  0  0  0  0  0  0
   -7.2690   -0.5725    0.0000 C   0  0  0  0  0  0  0  0  0  0  0  0
   -6.7810    0.8458    0.0000 C   0  0  0  0  0  0  0  0  0  0  0  0
   -5.3086    1.1324    0.0000 C   0  0  0  0  0  0  0  0  0  0  0  0
   -4.3243    0.0006    0.0000 C   0  0  0  0  0  0  0  0  0  0  0  0
   -2.8519    0.2871    0.0000 C   0  0  0  0  0  0  0  0  0  0  0  0
   -1.8676   -0.8447    0.0000 C   0  0  0  0  0  0  0  0  0  0  0  0
   -0.3952   -0.5582    0.0000 C   0  0  0  0  0  0  0  0  0  0  0  0
    0.0928    0.8602    0.0000 N   0  0  0  0  0  0  0  0  0  0  0  0
    1.5652    1.1468    0.0000 C   0  0  0  0  0  0  0  0  0  0  0  0
    2.5496    0.0150    0.0000 C   0  0  0  0  0  0  0  0  0  0  0  0
    4.0219    0.3015    0.0000 C   0  0  0  0  0  0  0  0  0  0  0  0
    5.0063   -0.8303    0.0000 C   0  0  0  0  0  0  0  0  0  0  0  0
    6.4787   -0.5438    0.0000 N   0  0  0  0  0  0  0  0  0  0  0  0
    7.1123    0.8158    0.0000 C   0  0  0  0  0  0  0  0  0  0  0  0
    8.6011    0.6334    0.0000 N   0  0  0  0  0  0  0  0  0  0  0  0
    8.8877   -0.8390    0.0000 C   0  0  0  0  0  0  0  0  0  0  0  0
    7.5759   -1.5665    0.0000 N   0  0  0  0  0  0  0  0  0  0  0  0
   -0.8915    1.9921    0.0000 C   0  0  0  0  0  0  0  0  0  0  0  0
   -2.3639    1.7055    0.0000 C   0  0  0  0  0  0  0  0  0  0  0  0
   -4.8123   -1.4178    0.0000 C   0  0  0  0  0  0  0  0  0  0  0  0
   -6.2847   -1.7044    0.0000 C   0  0  0  0  0  0  0  0  0  0  0  0
  1  2  1  0
  2  3  2  0
  3  4  1  0
  4  5  2  0
  5  6  1  0
  6  7  2  0
  7  8  1  0
  8  9  1  0
  9 10  1  0
 10 11  1  0
 11 12  1  0
 12 13  1  0
 13 14  1  0
 14 15  1  0
 15 16  2  0
 16 17  1  0
 17 18  2  0
  9 19  1  0
 19 20  1  0
  5 21  1  0
 21 22  2  0
 22  2  1  0
 20  6  1  0
 18 14  1  0
M  END
>  <Compound_Key>  (1208) 
E-5842

>  <Ki>  (1208) 
220.0

>  <database>  (1208) 
NewLiterature

>  <Document_ChEMBL_ID>  (1208) 
10.1021/acs.jmedchem.0c02265

$$$$

     RDKit          2D

 29 32  0  0  0  0  0  0  0  0999 V2000
   -9.3168    0.5071    0.0000 C   0  0  0  0  0  0  0  0  0  0  0  0
   -8.3687   -0.6552    0.0000 O   0  0  0  0  0  0  0  0  0  0  0  0
   -6.8880   -0.4153    0.0000 C   0  0  0  0  0  0  0  0  0  0  0  0
   -6.3555    0.9869    0.0000 C   0  0  0  0  0  0  0  0  0  0  0  0
   -4.8748    1.2268    0.0000 C   0  0  0  0  0  0  0  0  0  0  0  0
   -3.9267    0.0645    0.0000 C   0  0  0  0  0  0  0  0  0  0  0  0
   -4.4592   -1.3378    0.0000 C   0  0  0  0  0  0  0  0  0  0  0  0
   -5.9399   -1.5777    0.0000 C   0  0  0  0  0  0  0  0  0  0  0  0
   -6.4725   -2.9800    0.0000 O   0  0  0  0  0  0  0  0  0  0  0  0
   -5.5244   -4.1423    0.0000 C   0  0  0  0  0  0  0  0  0  0  0  0
   -2.4460    0.3044    0.0000 C   0  0  0  0  0  0  0  0  0  0  0  0
   -1.9134    1.7067    0.0000 N   0  0  0  0  0  0  0  0  0  0  0  0
   -0.4327    1.9466    0.0000 C   0  0  0  0  0  0  0  0  0  0  0  0
    0.5154    0.7842    0.0000 C   0  0  0  0  0  0  0  0  0  0  0  0
    1.9961    1.0241    0.0000 C   0  0  0  0  0  0  0  0  0  0  0  0
    2.9442   -0.1383    0.0000 C   0  0  0  0  0  0  0  0  0  0  0  0
    4.4249    0.1016    0.0000 N   0  0  0  0  0  0  0  0  0  0  0  0
    5.1011    1.4406    0.0000 C   0  0  0  0  0  0  0  0  0  0  0  0
    4.4154    2.7747    0.0000 O   0  0  0  0  0  0  0  0  0  0  0  0
    6.5835    1.2112    0.0000 N   0  0  0  0  0  0  0  0  0  0  0  0
    7.6404    2.2756    0.0000 C   0  0  0  0  0  0  0  0  0  0  0  0
    6.8234   -0.2695    0.0000 C   0  0  0  0  0  0  0  0  0  0  0  0
    8.0843   -1.0820    0.0000 C   0  0  0  0  0  0  0  0  0  0  0  0
    8.0111   -2.5802    0.0000 C   0  0  0  0  0  0  0  0  0  0  0  0
    6.6770   -3.2659    0.0000 C   0  0  0  0  0  0  0  0  0  0  0  0
    5.4161   -2.4535    0.0000 C   0  0  0  0  0  0  0  0  0  0  0  0
    5.4893   -0.9552    0.0000 C   0  0  0  0  0  0  0  0  0  0  0  0
   -2.8615    2.8690    0.0000 C   0  0  0  0  0  0  0  0  0  0  0  0
   -4.3422    2.6291    0.0000 C   0  0  0  0  0  0  0  0  0  0  0  0
  1  2  1  0
  2  3  1  0
  3  4  2  0
  4  5  1  0
  5  6  2  0
  6  7  1  0
  7  8  2  0
  8  9  1  0
  9 10  1  0
  6 11  1  0
 11 12  1  0
 12 13  1  0
 13 14  1  0
 14 15  1  0
 15 16  1  0
 16 17  1  0
 17 18  1  0
 18 19  2  0
 18 20  1  0
 20 21  1  0
 20 22  1  0
 22 23  2  0
 23 24  1  0
 24 25  2  0
 25 26  1  0
 26 27  2  0
 12 28  1  0
 28 29  1  0
  8  3  1  0
 27 17  1  0
 29  5  1  0
 27 22  1  0
M  END
>  <Compound_Key>  (1209) 
CM398

>  <Ki>  (1209) 
0.43

>  <database>  (1209) 
NewLiterature

>  <Document_ChEMBL_ID>  (1209) 
10.1021/acs.jmedchem.0c02265

$$$$

     RDKit          2D

 25 27  0  0  0  0  0  0  0  0999 V2000
   -8.9332   -0.1368    0.0000 C   0  0  0  0  0  0  0  0  0  0  0  0
   -7.4338   -0.0937    0.0000 C   0  0  0  0  0  0  0  0  0  0  0  0
   -6.7214    1.2263    0.0000 C   0  0  0  0  0  0  0  0  0  0  0  0
   -5.2220    1.2693    0.0000 C   0  0  0  0  0  0  0  0  0  0  0  0
   -4.4351   -0.0076    0.0000 C   0  0  0  0  0  0  0  0  0  0  0  0
   -2.9357    0.0354    0.0000 C   0  0  0  0  0  0  0  0  0  0  0  0
   -2.2233    1.3555    0.0000 N   0  0  0  0  0  0  0  0  0  0  0  0
   -3.0103    2.6324    0.0000 C   0  0  0  0  0  0  0  0  0  0  0  0
   -0.7239    1.3985    0.0000 C   0  0  0  0  0  0  0  0  0  0  0  0
    0.0631    0.1215    0.0000 C   0  0  0  0  0  0  0  0  0  0  0  0
    1.5625    0.1646    0.0000 C   0  0  0  0  0  0  0  0  0  0  0  0
    2.3494   -1.1124    0.0000 C   0  0  0  0  0  0  0  0  0  0  0  0
    3.8488   -1.0693    0.0000 N   0  0  0  0  0  0  0  0  0  0  0  0
    4.7650   -2.2571    0.0000 C   0  0  0  0  0  0  0  0  0  0  0  0
    4.3426   -3.6964    0.0000 O   0  0  0  0  0  0  0  0  0  0  0  0
    6.1777   -1.7528    0.0000 O   0  0  0  0  0  0  0  0  0  0  0  0
    6.1346   -0.2534    0.0000 C   0  0  0  0  0  0  0  0  0  0  0  0
    7.2201    0.7819    0.0000 C   0  0  0  0  0  0  0  0  0  0  0  0
    6.8662    2.2395    0.0000 C   0  0  0  0  0  0  0  0  0  0  0  0
    5.4269    2.6619    0.0000 C   0  0  0  0  0  0  0  0  0  0  0  0
    4.3415    1.6267    0.0000 C   0  0  0  0  0  0  0  0  0  0  0  0
    4.6953    0.1690    0.0000 C   0  0  0  0  0  0  0  0  0  0  0  0
   -5.1475   -1.3277    0.0000 C   0  0  0  0  0  0  0  0  0  0  0  0
   -4.3605   -2.6046    0.0000 C   0  0  0  0  0  0  0  0  0  0  0  0
   -6.6469   -1.3707    0.0000 C   0  0  0  0  0  0  0  0  0  0  0  0
  1  2  1  0
  2  3  2  0
  3  4  1  0
  4  5  2  0
  5  6  1  0
  6  7  1  0
  7  8  1  0
  7  9  1  0
  9 10  1  0
 10 11  1  0
 11 12  1  0
 12 13  1  0
 13 14  1  0
 14 15  2  0
 14 16  1  0
 16 17  1  0
 17 18  2  0
 18 19  1  0
 19 20  2  0
 20 21  1  0
 21 22  2  0
  5 23  1  0
 23 24  1  0
 23 25  2  0
 25  2  1  0
 22 13  1  0
 22 17  1  0
M  END
>  <Compound_Key>  (1210) 
Cmpd.C

>  <Ki>  (1210) 
6.94

>  <database>  (1210) 
NewLiterature

>  <Document_ChEMBL_ID>  (1210) 
10.1021/acs.jmedchem.0c02265

$$$$

     RDKit          2D

 32 34  0  0  0  0  0  0  0  0999 V2000
  -10.3064    0.6396    0.0000 C   0  0  0  0  0  0  0  0  0  0  0  0
   -9.4017   -0.5569    0.0000 O   0  0  0  0  0  0  0  0  0  0  0  0
   -7.9132   -0.3716    0.0000 C   0  0  0  0  0  0  0  0  0  0  0  0
   -7.3294    1.0102    0.0000 C   0  0  0  0  0  0  0  0  0  0  0  0
   -5.8409    1.1955    0.0000 C   0  0  0  0  0  0  0  0  0  0  0  0
   -4.9361   -0.0009    0.0000 C   0  0  0  0  0  0  0  0  0  0  0  0
   -5.5199   -1.3827    0.0000 C   0  0  0  0  0  0  0  0  0  0  0  0
   -7.0084   -1.5680    0.0000 C   0  0  0  0  0  0  0  0  0  0  0  0
   -7.5922   -2.9497    0.0000 O   0  0  0  0  0  0  0  0  0  0  0  0
   -6.6874   -4.1462    0.0000 C   0  0  0  0  0  0  0  0  0  0  0  0
   -3.4476    0.1844    0.0000 C   0  0  0  0  0  0  0  0  0  0  0  0
   -2.8639    1.5661    0.0000 N   0  0  0  0  0  0  0  0  0  0  0  0
   -1.3754    1.7515    0.0000 C   0  0  0  0  0  0  0  0  0  0  0  0
   -0.4706    0.5550    0.0000 C   0  0  0  0  0  0  0  0  0  0  0  0
    1.0179    0.7404    0.0000 C   0  0  0  0  0  0  0  0  0  0  0  0
    1.9226   -0.4561    0.0000 C   0  0  0  0  0  0  0  0  0  0  0  0
    3.4111   -0.2708    0.0000 N   0  0  0  0  0  0  0  0  0  0  0  0
    4.3159   -1.4672    0.0000 C   0  0  0  0  0  0  0  0  0  0  0  0
    3.7321   -2.8489    0.0000 O   0  0  0  0  0  0  0  0  0  0  0  0
    5.8044   -1.2819    0.0000 C   0  0  0  0  0  0  0  0  0  0  0  0
    6.7091   -2.4783    0.0000 C   0  0  0  0  0  0  0  0  0  0  0  0
    8.1977   -2.2930    0.0000 C   0  0  0  0  0  0  0  0  0  0  0  0
    9.1024   -3.4894    0.0000 C   0  0  0  0  0  0  0  0  0  0  0  0
    8.7814   -0.9112    0.0000 C   0  0  0  0  0  0  0  0  0  0  0  0
    7.8767    0.2852    0.0000 C   0  0  0  0  0  0  0  0  0  0  0  0
    6.3882    0.0999    0.0000 C   0  0  0  0  0  0  0  0  0  0  0  0
    5.4834    1.2963    0.0000 O   0  0  0  0  0  0  0  0  0  0  0  0
    6.0672    2.6781    0.0000 C   0  0  0  0  0  0  0  0  0  0  0  0
    5.1624    3.8745    0.0000 C   0  0  0  0  0  0  0  0  0  0  0  0
    5.7462    5.2562    0.0000 F   0  0  0  0  0  0  0  0  0  0  0  0
   -3.7686    2.7626    0.0000 C   0  0  0  0  0  0  0  0  0  0  0  0
   -5.2571    2.5773    0.0000 C   0  0  0  0  0  0  0  0  0  0  0  0
  1  2  1  0
  2  3  1  0
  3  4  2  0
  4  5  1  0
  5  6  2  0
  6  7  1  0
  7  8  2  0
  8  9  1  0
  9 10  1  0
  6 11  1  0
 11 12  1  0
 12 13  1  0
 13 14  1  0
 14 15  1  0
 15 16  1  0
 16 17  1  0
 17 18  1  0
 18 19  2  0
 18 20  1  0
 20 21  2  0
 21 22  1  0
 22 23  1  0
 22 24  2  0
 24 25  1  0
 25 26  2  0
 26 27  1  0
 27 28  1  0
 28 29  1  0
 29 30  1  0
 12 31  1  0
 31 32  1  0
  8  3  1  0
 26 20  1  0
 32  5  1  0
M  END
>  <ChemBL_ID>  (1211) 
CHEMBL226539

>  <Ki>  (1211) 
6.95

>  <database>  (1211) 
SRSLDB

$$$$

     RDKit          2D

 24 27  0  0  0  0  0  0  0  0999 V2000
   -4.9105    2.7505    0.0000 C   0  0  0  0  0  0  0  0  0  0  0  0
   -4.8329    1.2525    0.0000 C   0  0  0  0  0  0  0  0  0  0  0  0
   -3.4968    0.5707    0.0000 C   0  0  0  0  0  0  0  0  0  0  0  0
   -3.4191   -0.9273    0.0000 N   0  0  0  0  0  0  0  0  0  0  0  0
   -2.0830   -1.6090    0.0000 C   0  0  0  0  0  0  0  0  0  0  0  0
   -0.8245   -0.7928    0.0000 C   0  0  0  0  0  0  0  0  0  0  0  0
    0.5116   -1.4746    0.0000 C   0  0  0  0  0  0  0  0  0  0  0  0
    1.7701   -0.6584    0.0000 N   0  0  0  0  0  0  0  0  0  0  0  0
    3.1701   -1.1968    0.0000 C   0  0  0  0  0  0  0  0  0  0  0  0
    3.7068   -2.5974    0.0000 C   0  0  0  0  0  0  0  0  0  0  0  0
    5.1882   -2.8330    0.0000 C   0  0  0  0  0  0  0  0  0  0  0  0
    6.1329   -1.6678    0.0000 C   0  0  0  0  0  0  0  0  0  0  0  0
    5.5962   -0.2671    0.0000 C   0  0  0  0  0  0  0  0  0  0  0  0
    4.1148   -0.0316    0.0000 C   0  0  0  0  0  0  0  0  0  0  0  0
    3.2986    1.2269    0.0000 C   0  0  0  0  0  0  0  0  0  0  0  0
    3.6876    2.6756    0.0000 C   0  0  0  0  0  0  0  0  0  0  0  0
    2.6276    3.7368    0.0000 C   0  0  0  0  0  0  0  0  0  0  0  0
    1.1785    3.3495    0.0000 C   0  0  0  0  0  0  0  0  0  0  0  0
    0.7894    1.9008    0.0000 C   0  0  0  0  0  0  0  0  0  0  0  0
    1.8494    0.8395    0.0000 C   0  0  0  0  0  0  0  0  0  0  0  0
   -4.6776   -1.7435    0.0000 C   0  0  0  0  0  0  0  0  0  0  0  0
   -6.0137   -1.0617    0.0000 C   0  0  0  0  0  0  0  0  0  0  0  0
   -7.2722   -1.8779    0.0000 C   0  0  0  0  0  0  0  0  0  0  0  0
   -6.0914    0.4363    0.0000 N   0  0  0  0  0  0  0  0  0  0  0  0
  2  1  1  6
  2  3  1  0
  3  4  1  0
  4  5  1  0
  5  6  1  0
  6  7  1  0
  7  8  1  0
  8  9  1  0
  9 10  2  0
 10 11  1  0
 11 12  2  0
 12 13  1  0
 13 14  2  0
 14 15  1  0
 15 16  2  0
 16 17  1  0
 17 18  2  0
 18 19  1  0
 19 20  2  0
  4 21  1  0
 21 22  1  0
 22 23  1  6
 22 24  1  0
 24  2  1  0
 20  8  1  0
 14  9  1  0
 20 15  1  0
M  END
>  <Compound_Key>  (1212) 
Rimcazole

>  <Ki>  (1212) 
571.0

>  <database>  (1212) 
NewLiterature

>  <Document_ChEMBL_ID>  (1212) 
10.1021/acs.jmedchem.0c02265

$$$$

     RDKit          2D

 17 17  0  0  0  0  0  0  0  0999 V2000
    6.6799    1.0354    0.0000 C   0  0  0  0  0  0  0  0  0  0  0  0
    5.1801    1.0603    0.0000 N   0  0  0  0  0  0  0  0  0  0  0  0
    4.4518    2.3716    0.0000 C   0  0  0  0  0  0  0  0  0  0  0  0
    4.4086   -0.2261    0.0000 C   0  0  0  0  0  0  0  0  0  0  0  0
    2.9088   -0.2012    0.0000 C   0  0  0  0  0  0  0  0  0  0  0  0
    2.1374   -1.4876    0.0000 N   0  0  0  0  0  0  0  0  0  0  0  0
    2.8657   -2.7989    0.0000 C   0  0  0  0  0  0  0  0  0  0  0  0
    0.6376   -1.4627    0.0000 C   0  0  0  0  0  0  0  0  0  0  0  0
   -0.0908   -0.1513    0.0000 C   0  0  0  0  0  0  0  0  0  0  0  0
   -1.5906   -0.1264    0.0000 C   0  0  0  0  0  0  0  0  0  0  0  0
   -2.3620   -1.4128    0.0000 C   0  0  0  0  0  0  0  0  0  0  0  0
   -3.8618   -1.3879    0.0000 C   0  0  0  0  0  0  0  0  0  0  0  0
   -4.5901   -0.0766    0.0000 C   0  0  0  0  0  0  0  0  0  0  0  0
   -6.0899   -0.0517    0.0000 Cl  0  0  0  0  0  0  0  0  0  0  0  0
   -3.8187    1.2098    0.0000 C   0  0  0  0  0  0  0  0  0  0  0  0
   -4.5470    2.5211    0.0000 Cl  0  0  0  0  0  0  0  0  0  0  0  0
   -2.3189    1.1849    0.0000 C   0  0  0  0  0  0  0  0  0  0  0  0
  1  2  1  0
  2  3  1  0
  2  4  1  0
  4  5  1  0
  5  6  1  0
  6  7  1  0
  6  8  1  0
  8  9  1  0
  9 10  1  0
 10 11  2  0
 11 12  1  0
 12 13  2  0
 13 14  1  0
 13 15  1  0
 15 16  1  0
 15 17  2  0
 17 10  1  0
M  END
>  <Compound_Key>  (1213) 
BD1047

>  <Ki>  (1213) 
47.0

>  <database>  (1213) 
NewLiterature

>  <Document_ChEMBL_ID>  (1213) 
10.1021/acs.jmedchem.0c02265

$$$$

     RDKit          2D

 21 21  0  0  0  0  0  0  0  0999 V2000
   -7.9612   -0.5590    0.0000 C   0  0  0  0  0  0  0  0  0  0  0  0
   -6.7058   -1.3799    0.0000 C   0  0  0  0  0  0  0  0  0  0  0  0
   -5.3672   -0.7032    0.0000 C   0  0  0  0  0  0  0  0  0  0  0  0
   -4.1118   -1.5241    0.0000 C   0  0  0  0  0  0  0  0  0  0  0  0
   -2.7731   -0.8474    0.0000 N   0  0  0  0  0  0  0  0  0  0  0  0
   -2.6898    0.6503    0.0000 C   0  0  0  0  0  0  0  0  0  0  0  0
   -3.9453    1.4712    0.0000 C   0  0  0  0  0  0  0  0  0  0  0  0
   -3.8620    2.9689    0.0000 C   0  0  0  0  0  0  0  0  0  0  0  0
   -5.1174    3.7899    0.0000 C   0  0  0  0  0  0  0  0  0  0  0  0
   -1.5177   -1.6683    0.0000 C   0  0  0  0  0  0  0  0  0  0  0  0
   -0.1790   -0.9916    0.0000 C   0  0  0  0  0  0  0  0  0  0  0  0
    1.0764   -1.8125    0.0000 C   0  0  0  0  0  0  0  0  0  0  0  0
    2.4150   -1.1358    0.0000 C   0  0  0  0  0  0  0  0  0  0  0  0
    2.4983    0.3619    0.0000 C   0  0  0  0  0  0  0  0  0  0  0  0
    3.8370    1.0386    0.0000 C   0  0  0  0  0  0  0  0  0  0  0  0
    5.0924    0.2177    0.0000 C   0  0  0  0  0  0  0  0  0  0  0  0
    6.4310    0.8944    0.0000 N   0  0  0  0  0  4  0  0  0  0  0  0
    6.5143    2.3921    0.0000 O   0  0  0  0  0  0  0  0  0  0  0  0
    7.6864    0.0735    0.0000 O   0  0  0  0  0  1  0  0  0  0  0  0
    5.0091   -1.2800    0.0000 C   0  0  0  0  0  0  0  0  0  0  0  0
    3.6704   -1.9567    0.0000 C   0  0  0  0  0  0  0  0  0  0  0  0
  1  2  1  0
  2  3  1  0
  3  4  1  0
  4  5  1  0
  5  6  1  0
  6  7  1  0
  7  8  1  0
  8  9  1  0
  5 10  1  0
 10 11  1  0
 11 12  1  0
 12 13  1  0
 13 14  2  0
 14 15  1  0
 15 16  2  0
 16 17  1  0
 17 18  2  0
 17 19  1  0
 16 20  1  0
 20 21  2  0
 21 13  1  0
M  CHG  2  17   1  19  -1
M  END
>  <Compound_Key>  (1214) 
Fppmp-D-1

>  <Ki>  (1214) 
404.0

>  <database>  (1214) 
NewLiterature

>  <Document_ChEMBL_ID>  (1214) 
10.1021/acs.jmedchem.0c02265

$$$$

     RDKit          2D

 19 19  0  0  0  0  0  0  0  0999 V2000
   -7.1761   -0.8530    0.0000 C   0  0  0  0  0  0  0  0  0  0  0  0
   -5.8745   -1.5986    0.0000 C   0  0  0  0  0  0  0  0  0  0  0  0
   -4.5780   -0.8443    0.0000 C   0  0  0  0  0  0  0  0  0  0  0  0
   -3.2765   -1.5899    0.0000 C   0  0  0  0  0  0  0  0  0  0  0  0
   -1.9800   -0.8356    0.0000 N   0  0  0  0  0  0  0  0  0  0  0  0
   -1.9850    0.6644    0.0000 C   0  0  0  0  0  0  0  0  0  0  0  0
   -3.2865    1.4101    0.0000 C   0  0  0  0  0  0  0  0  0  0  0  0
   -3.2915    2.9100    0.0000 C   0  0  0  0  0  0  0  0  0  0  0  0
   -4.5931    3.6557    0.0000 C   0  0  0  0  0  0  0  0  0  0  0  0
   -0.6784   -1.5812    0.0000 C   0  0  0  0  0  0  0  0  0  0  0  0
    0.6181   -0.8269    0.0000 C   0  0  0  0  0  0  0  0  0  0  0  0
    1.9196   -1.5725    0.0000 C   0  0  0  0  0  0  0  0  0  0  0  0
    3.2162   -0.8182    0.0000 C   0  0  0  0  0  0  0  0  0  0  0  0
    3.2111    0.6818    0.0000 C   0  0  0  0  0  0  0  0  0  0  0  0
    4.5077    1.4362    0.0000 C   0  0  0  0  0  0  0  0  0  0  0  0
    5.8092    0.6905    0.0000 C   0  0  0  0  0  0  0  0  0  0  0  0
    7.1057    1.4449    0.0000 F   0  0  0  0  0  0  0  0  0  0  0  0
    5.8142   -0.8095    0.0000 C   0  0  0  0  0  0  0  0  0  0  0  0
    4.5177   -1.5638    0.0000 C   0  0  0  0  0  0  0  0  0  0  0  0
  1  2  1  0
  2  3  1  0
  3  4  1  0
  4  5  1  0
  5  6  1  0
  6  7  1  0
  7  8  1  0
  8  9  1  0
  5 10  1  0
 10 11  1  0
 11 12  1  0
 12 13  1  0
 13 14  2  0
 14 15  1  0
 15 16  2  0
 16 17  1  0
 16 18  1  0
 18 19  2  0
 19 13  1  0
M  END
>  <Compound_Key>  (1215) 
Fppmp-D-2

>  <Ki>  (1215) 
685.0

>  <database>  (1215) 
NewLiterature

>  <Document_ChEMBL_ID>  (1215) 
10.1021/acs.jmedchem.0c02265

$$$$

     RDKit          2D

 22 23  0  0  0  0  0  0  0  0999 V2000
   -4.7893   -2.7383    0.0000 C   0  0  0  0  0  0  0  0  0  0  0  0
   -3.6134   -1.8070    0.0000 C   0  0  0  0  0  0  0  0  0  0  0  0
   -2.2189   -2.3598    0.0000 C   0  0  0  0  0  0  0  0  0  0  0  0
   -1.0430   -1.4285    0.0000 N   0  0  0  0  0  0  0  0  0  0  0  0
    0.3514   -1.9813    0.0000 C   0  0  0  0  0  0  0  0  0  0  0  0
    1.5274   -1.0501    0.0000 C   0  0  0  0  0  0  0  0  0  0  0  0
    2.9218   -1.6028    0.0000 C   0  0  0  0  0  0  0  0  0  0  0  0
    4.0977   -0.6716    0.0000 C   0  0  0  0  0  0  0  0  0  0  0  0
    5.4921   -1.2243    0.0000 C   0  0  0  0  0  0  0  0  0  0  0  0
    6.6681   -0.2931    0.0000 C   0  0  0  0  0  0  0  0  0  0  0  0
    6.4496    1.1909    0.0000 C   0  0  0  0  0  0  0  0  0  0  0  0
    7.6255    2.1221    0.0000 F   0  0  0  0  0  0  0  0  0  0  0  0
    5.0551    1.7437    0.0000 C   0  0  0  0  0  0  0  0  0  0  0  0
    3.8792    0.8124    0.0000 C   0  0  0  0  0  0  0  0  0  0  0  0
   -1.2615    0.0555    0.0000 C   0  0  0  0  0  0  0  0  0  0  0  0
   -2.6560    0.6082    0.0000 C   0  0  0  0  0  0  0  0  0  0  0  0
   -2.8745    2.0922    0.0000 C   0  0  0  0  0  0  0  0  0  0  0  0
   -4.2689    2.6450    0.0000 C   0  0  0  0  0  0  0  0  0  0  0  0
   -5.4448    1.7137    0.0000 C   0  0  0  0  0  0  0  0  0  0  0  0
   -6.8393    2.2665    0.0000 N   0  0  0  0  0  0  0  0  0  0  0  0
   -5.2263    0.2297    0.0000 C   0  0  0  0  0  0  0  0  0  0  0  0
   -3.8319   -0.3230    0.0000 C   0  0  0  0  0  0  0  0  0  0  0  0
  1  2  1  0
  2  3  1  0
  3  4  1  0
  4  5  1  0
  5  6  1  0
  6  7  1  0
  7  8  1  0
  8  9  2  0
  9 10  1  0
 10 11  2  0
 11 12  1  0
 11 13  1  0
 13 14  2  0
  4 15  1  0
 15 16  1  0
 16 17  2  0
 17 18  1  0
 18 19  2  0
 19 20  1  0
 19 21  1  0
 21 22  2  0
 14  8  1  0
 22 16  1  0
M  END
>  <Compound_Key>  (1216) 
Fppmp-D-3

>  <Ki>  (1216) 
2150.0

>  <database>  (1216) 
NewLiterature

>  <Document_ChEMBL_ID>  (1216) 
10.1021/acs.jmedchem.0c02265

$$$$

     RDKit          2D

 23 24  0  0  0  0  0  0  0  0999 V2000
   -4.1483   -4.6144    0.0000 C   0  0  0  0  0  0  0  0  0  0  0  0
   -3.2079   -3.4458    0.0000 C   0  0  0  0  0  0  0  0  0  0  0  0
   -1.7256   -3.6759    0.0000 C   0  0  0  0  0  0  0  0  0  0  0  0
   -0.7852   -2.5073    0.0000 N   0  0  0  0  0  0  0  0  0  0  0  0
    0.6970   -2.7374    0.0000 C   0  0  0  0  0  0  0  0  0  0  0  0
    1.6374   -1.5688    0.0000 C   0  0  0  0  0  0  0  0  0  0  0  0
    3.1197   -1.7989    0.0000 C   0  0  0  0  0  0  0  0  0  0  0  0
    4.0601   -0.6303    0.0000 C   0  0  0  0  0  0  0  0  0  0  0  0
    5.5423   -0.8604    0.0000 C   0  0  0  0  0  0  0  0  0  0  0  0
    6.4827    0.3082    0.0000 C   0  0  0  0  0  0  0  0  0  0  0  0
    5.9409    1.7069    0.0000 C   0  0  0  0  0  0  0  0  0  0  0  0
    6.8813    2.8755    0.0000 F   0  0  0  0  0  0  0  0  0  0  0  0
    4.4586    1.9370    0.0000 C   0  0  0  0  0  0  0  0  0  0  0  0
    3.5182    0.7684    0.0000 C   0  0  0  0  0  0  0  0  0  0  0  0
   -1.3271   -1.1086    0.0000 C   0  0  0  0  0  0  0  0  0  0  0  0
   -2.8093   -0.8785    0.0000 C   0  0  0  0  0  0  0  0  0  0  0  0
   -3.3512    0.5203    0.0000 C   0  0  0  0  0  0  0  0  0  0  0  0
   -2.4108    1.6889    0.0000 C   0  0  0  0  0  0  0  0  0  0  0  0
   -2.9526    3.0876    0.0000 C   0  0  0  0  0  0  0  0  0  0  0  0
   -4.4348    3.3177    0.0000 C   0  0  0  0  0  0  0  0  0  0  0  0
   -4.9767    4.7164    0.0000 N   0  0  0  0  0  0  0  0  0  0  0  0
   -5.3752    2.1491    0.0000 C   0  0  0  0  0  0  0  0  0  0  0  0
   -4.8334    0.7504    0.0000 C   0  0  0  0  0  0  0  0  0  0  0  0
  1  2  1  0
  2  3  1  0
  3  4  1  0
  4  5  1  0
  5  6  1  0
  6  7  1  0
  7  8  1  0
  8  9  2  0
  9 10  1  0
 10 11  2  0
 11 12  1  0
 11 13  1  0
 13 14  2  0
  4 15  1  0
 15 16  1  0
 16 17  1  0
 17 18  2  0
 18 19  1  0
 19 20  2  0
 20 21  1  0
 20 22  1  0
 22 23  2  0
 14  8  1  0
 23 17  1  0
M  END
>  <Compound_Key>  (1217) 
Fppmp-D-4

>  <Ki>  (1217) 
720.0

>  <database>  (1217) 
NewLiterature

>  <Document_ChEMBL_ID>  (1217) 
10.1021/acs.jmedchem.0c02265

$$$$

     RDKit          2D

 25 26  0  0  0  0  0  0  0  0999 V2000
   -5.3582   -4.2008    0.0000 C   0  0  0  0  0  0  0  0  0  0  0  0
   -4.2675   -3.1711    0.0000 C   0  0  0  0  0  0  0  0  0  0  0  0
   -2.8303   -3.6009    0.0000 C   0  0  0  0  0  0  0  0  0  0  0  0
   -1.7396   -2.5712    0.0000 N   0  0  0  0  0  0  0  0  0  0  0  0
   -0.3025   -3.0010    0.0000 C   0  0  0  0  0  0  0  0  0  0  0  0
    0.7883   -1.9713    0.0000 C   0  0  0  0  0  0  0  0  0  0  0  0
    2.2254   -2.4010    0.0000 C   0  0  0  0  0  0  0  0  0  0  0  0
    3.3161   -1.3713    0.0000 C   0  0  0  0  0  0  0  0  0  0  0  0
    4.7532   -1.8011    0.0000 C   0  0  0  0  0  0  0  0  0  0  0  0
    5.8440   -0.7714    0.0000 C   0  0  0  0  0  0  0  0  0  0  0  0
    5.4976    0.6881    0.0000 C   0  0  0  0  0  0  0  0  0  0  0  0
    6.5884    1.7178    0.0000 N   0  0  0  0  0  4  0  0  0  0  0  0
    6.2420    3.1772    0.0000 O   0  0  0  0  0  0  0  0  0  0  0  0
    8.0255    1.2880    0.0000 O   0  0  0  0  0  1  0  0  0  0  0  0
    4.0605    1.1178    0.0000 C   0  0  0  0  0  0  0  0  0  0  0  0
    2.9698    0.0881    0.0000 C   0  0  0  0  0  0  0  0  0  0  0  0
   -2.0860   -1.1117    0.0000 C   0  0  0  0  0  0  0  0  0  0  0  0
   -3.5231   -0.6820    0.0000 C   0  0  0  0  0  0  0  0  0  0  0  0
   -3.8695    0.7775    0.0000 C   0  0  0  0  0  0  0  0  0  0  0  0
   -2.7787    1.8072    0.0000 C   0  0  0  0  0  0  0  0  0  0  0  0
   -3.1251    3.2667    0.0000 C   0  0  0  0  0  0  0  0  0  0  0  0
   -4.5622    3.6964    0.0000 C   0  0  0  0  0  0  0  0  0  0  0  0
   -4.9086    5.1559    0.0000 N   0  0  0  0  0  0  0  0  0  0  0  0
   -5.6529    2.6667    0.0000 C   0  0  0  0  0  0  0  0  0  0  0  0
   -5.3066    1.2073    0.0000 C   0  0  0  0  0  0  0  0  0  0  0  0
  1  2  1  0
  2  3  1  0
  3  4  1  0
  4  5  1  0
  5  6  1  0
  6  7  1  0
  7  8  1  0
  8  9  2  0
  9 10  1  0
 10 11  2  0
 11 12  1  0
 12 13  2  0
 12 14  1  0
 11 15  1  0
 15 16  2  0
  4 17  1  0
 17 18  1  0
 18 19  1  0
 19 20  2  0
 20 21  1  0
 21 22  2  0
 22 23  1  0
 22 24  1  0
 24 25  2  0
 16  8  1  0
 25 19  1  0
M  CHG  2  12   1  14  -1
M  END
>  <Compound_Key>  (1218) 
Fppmp-D-5

>  <Ki>  (1218) 
83.6

>  <database>  (1218) 
NewLiterature

>  <Document_ChEMBL_ID>  (1218) 
10.1021/acs.jmedchem.0c02265

$$$$

     RDKit          2D

 26 27  0  0  0  0  0  0  0  0999 V2000
   -2.3906   -5.8648    0.0000 C   0  0  0  0  0  0  0  0  0  0  0  0
   -1.7272   -4.5194    0.0000 C   0  0  0  0  0  0  0  0  0  0  0  0
   -0.2304   -4.4213    0.0000 C   0  0  0  0  0  0  0  0  0  0  0  0
    0.4330   -3.0760    0.0000 N   0  0  0  0  0  0  0  0  0  0  0  0
    1.9298   -2.9778    0.0000 C   0  0  0  0  0  0  0  0  0  0  0  0
    2.5931   -1.6325    0.0000 C   0  0  0  0  0  0  0  0  0  0  0  0
    4.0899   -1.5343    0.0000 C   0  0  0  0  0  0  0  0  0  0  0  0
    4.7533   -0.1890    0.0000 C   0  0  0  0  0  0  0  0  0  0  0  0
    6.2501   -0.0909    0.0000 C   0  0  0  0  0  0  0  0  0  0  0  0
    6.9135    1.2545    0.0000 C   0  0  0  0  0  0  0  0  0  0  0  0
    6.0801    2.5017    0.0000 C   0  0  0  0  0  0  0  0  0  0  0  0
    6.7435    3.8470    0.0000 F   0  0  0  0  0  0  0  0  0  0  0  0
    4.5833    2.4035    0.0000 C   0  0  0  0  0  0  0  0  0  0  0  0
    3.9199    1.0582    0.0000 C   0  0  0  0  0  0  0  0  0  0  0  0
   -0.4004   -1.8288    0.0000 C   0  0  0  0  0  0  0  0  0  0  0  0
   -1.8972   -1.9269    0.0000 C   0  0  0  0  0  0  0  0  0  0  0  0
   -2.7306   -0.6798    0.0000 C   0  0  0  0  0  0  0  0  0  0  0  0
   -2.0672    0.6656    0.0000 C   0  0  0  0  0  0  0  0  0  0  0  0
   -2.9006    1.9127    0.0000 C   0  0  0  0  0  0  0  0  0  0  0  0
   -4.3974    1.8146    0.0000 C   0  0  0  0  0  0  0  0  0  0  0  0
   -5.2308    3.0618    0.0000 N   0  0  0  0  0  0  0  0  0  0  0  0
   -4.5674    4.4071    0.0000 N   0  0  0  0  0  4  0  0  0  0  0  0
   -3.9040    5.7524    0.0000 N   0  0  0  0  0  2  0  0  0  0  0  0
   -5.0608    0.4693    0.0000 C   0  0  0  0  0  0  0  0  0  0  0  0
   -6.5576    0.3711    0.0000 I   0  0  0  0  0  0  0  0  0  0  0  0
   -4.2274   -0.7779    0.0000 C   0  0  0  0  0  0  0  0  0  0  0  0
  1  2  1  0
  2  3  1  0
  3  4  1  0
  4  5  1  0
  5  6  1  0
  6  7  1  0
  7  8  1  0
  8  9  2  0
  9 10  1  0
 10 11  2  0
 11 12  1  0
 11 13  1  0
 13 14  2  0
  4 15  1  0
 15 16  1  0
 16 17  1  0
 17 18  2  0
 18 19  1  0
 19 20  2  0
 20 21  1  0
 21 22  2  0
 22 23  2  0
 20 24  1  0
 24 25  1  0
 24 26  2  0
 14  8  1  0
 26 17  1  0
M  CHG  2  22   1  23  -1
M  END
>  <Compound_Key>  (1219) 
Fppmp-D-6

>  <Ki>  (1219) 
1290.0

>  <database>  (1219) 
NewLiterature

>  <Document_ChEMBL_ID>  (1219) 
10.1021/acs.jmedchem.0c02265

$$$$

     RDKit          2D

 30 32  0  0  0  0  0  0  0  0999 V2000
   -9.9781    0.4325    0.0000 C   0  0  0  0  0  0  0  0  0  0  0  0
   -9.0132   -0.7160    0.0000 O   0  0  0  0  0  0  0  0  0  0  0  0
   -7.5361   -0.4545    0.0000 C   0  0  0  0  0  0  0  0  0  0  0  0
   -7.0240    0.9554    0.0000 C   0  0  0  0  0  0  0  0  0  0  0  0
   -5.5470    1.2168    0.0000 C   0  0  0  0  0  0  0  0  0  0  0  0
   -4.5821    0.0684    0.0000 C   0  0  0  0  0  0  0  0  0  0  0  0
   -5.0942   -1.3415    0.0000 C   0  0  0  0  0  0  0  0  0  0  0  0
   -6.5712   -1.6029    0.0000 C   0  0  0  0  0  0  0  0  0  0  0  0
   -7.0833   -3.0128    0.0000 O   0  0  0  0  0  0  0  0  0  0  0  0
   -6.1183   -4.1612    0.0000 C   0  0  0  0  0  0  0  0  0  0  0  0
   -3.1050    0.3299    0.0000 C   0  0  0  0  0  0  0  0  0  0  0  0
   -2.5929    1.7397    0.0000 N   0  0  0  0  0  0  0  0  0  0  0  0
   -1.1159    2.0012    0.0000 C   0  0  0  0  0  0  0  0  0  0  0  0
   -0.1510    0.8528    0.0000 C   0  0  0  0  0  0  0  0  0  0  0  0
    1.3261    1.1142    0.0000 C   0  0  0  0  0  0  0  0  0  0  0  0
    2.2910   -0.0342    0.0000 C   0  0  0  0  0  0  0  0  0  0  0  0
    3.7681    0.2273    0.0000 N   0  0  0  0  0  0  0  0  0  0  0  0
    4.7330   -0.9212    0.0000 C   0  0  0  0  0  0  0  0  0  0  0  0
    4.2209   -2.3311    0.0000 O   0  0  0  0  0  0  0  0  0  0  0  0
    6.2101   -0.6597    0.0000 C   0  0  0  0  0  0  0  0  0  0  0  0
    7.1750   -1.8081    0.0000 C   0  0  0  0  0  0  0  0  0  0  0  0
    8.6520   -1.5467    0.0000 C   0  0  0  0  0  0  0  0  0  0  0  0
    9.6170   -2.6951    0.0000 C   0  0  0  0  0  0  0  0  0  0  0  0
    9.1641   -0.1368    0.0000 C   0  0  0  0  0  0  0  0  0  0  0  0
    8.1992    1.0116    0.0000 C   0  0  0  0  0  0  0  0  0  0  0  0
    6.7221    0.7502    0.0000 C   0  0  0  0  0  0  0  0  0  0  0  0
    5.7572    1.8986    0.0000 O   0  0  0  0  0  0  0  0  0  0  0  0
    6.2693    3.3085    0.0000 C   0  0  0  0  0  0  0  0  0  0  0  0
   -3.5579    2.8882    0.0000 C   0  0  0  0  0  0  0  0  0  0  0  0
   -5.0349    2.6267    0.0000 C   0  0  0  0  0  0  0  0  0  0  0  0
  1  2  1  0
  2  3  1  0
  3  4  2  0
  4  5  1  0
  5  6  2  0
  6  7  1  0
  7  8  2  0
  8  9  1  0
  9 10  1  0
  6 11  1  0
 11 12  1  0
 12 13  1  0
 13 14  1  0
 14 15  1  0
 15 16  1  0
 16 17  1  0
 17 18  1  0
 18 19  2  0
 18 20  1  0
 20 21  2  0
 21 22  1  0
 22 23  1  0
 22 24  2  0
 24 25  1  0
 25 26  2  0
 26 27  1  0
 27 28  1  0
 12 29  1  0
 29 30  1  0
  8  3  1  0
 26 20  1  0
 30  5  1  0
M  END
>  <ChemBL_ID>  (1220) 
CHEMBL60048

>  <Ki>  (1220) 
8.68

>  <database>  (1220) 
SRSLDB

>  <Assay_ChEMBL_ID>  (1220) 
CHEMBL3889176

>  <Document_ChEMBL_ID>  (1220) 
CHEMBL1828588

$$$$

     RDKit          2D

 22 25  0  0  0  0  0  0  0  0999 V2000
   -6.0632    2.0054    0.0000 C   0  0  0  0  0  0  0  0  0  0  0  0
   -4.5802    2.2307    0.0000 C   0  0  0  0  0  0  0  0  0  0  0  0
   -3.6436    1.0590    0.0000 C   0  0  0  0  0  0  0  0  0  0  0  0
   -4.1900   -0.3379    0.0000 C   0  0  0  0  0  0  0  0  0  0  0  0
   -3.2534   -1.5096    0.0000 C   0  0  0  0  0  0  0  0  0  0  0  0
   -1.7704   -1.2843    0.0000 N   0  0  0  0  0  0  0  0  0  0  0  0
   -0.8338   -2.4559    0.0000 C   0  0  0  0  0  0  0  0  0  0  0  0
    0.6492   -2.2306    0.0000 C   0  0  0  0  0  0  0  0  0  0  0  0
    1.1956   -0.8337    0.0000 C   0  0  0  0  0  0  0  0  0  0  0  0
    2.1322   -2.0053    0.0000 C   0  0  0  0  0  0  0  0  0  0  0  0
    3.6152   -1.7801    0.0000 C   0  0  0  0  0  0  0  0  0  0  0  0
    4.1616   -0.3831    0.0000 C   0  0  0  0  0  0  0  0  0  0  0  0
    5.6445   -0.1578    0.0000 C   0  0  0  0  0  0  0  0  0  0  0  0
    6.1909    1.2391    0.0000 C   0  0  0  0  0  0  0  0  0  0  0  0
    5.2543    2.4108    0.0000 C   0  0  0  0  0  0  0  0  0  0  0  0
    3.7714    2.1855    0.0000 C   0  0  0  0  0  0  0  0  0  0  0  0
    3.2250    0.7885    0.0000 C   0  0  0  0  0  0  0  0  0  0  0  0
    1.7420    0.5633    0.0000 C   0  0  0  0  0  0  0  0  0  0  0  0
    0.2590    0.3380    0.0000 C   0  0  0  0  0  0  0  0  0  0  0  0
   -1.2240    0.1127    0.0000 C   0  0  0  0  0  0  0  0  0  0  0  0
   -5.6729   -0.5632    0.0000 C   0  0  0  0  0  0  0  0  0  0  0  0
   -6.6095    0.6085    0.0000 C   0  0  0  0  0  0  0  0  0  0  0  0
  1  2  2  0
  2  3  1  0
  3  4  2  0
  4  5  1  0
  5  6  1  0
  6  7  1  0
  7  8  1  0
  8  9  1  0
  9 10  1  0
 10 11  1  0
 11 12  1  0
 12 13  2  0
 13 14  1  0
 14 15  2  0
 15 16  1  0
 16 17  2  0
 17 18  1  0
  9 19  1  0
 19 20  1  0
  4 21  1  0
 21 22  2  0
 22  1  1  0
 20  6  1  0
 18  9  1  0
 17 12  1  0
M  END
>  <Compound_Key>  (1221) 
Spptn-8

>  <Ki>  (1221) 
14.1

>  <database>  (1221) 
NewLiterature

>  <Document_ChEMBL_ID>  (1221) 
10.1021/acs.jmedchem.0c02265

$$$$

     RDKit          2D

 22 25  0  0  0  0  0  0  0  0999 V2000
   -6.0632    2.0054    0.0000 C   0  0  0  0  0  0  0  0  0  0  0  0
   -4.5802    2.2307    0.0000 C   0  0  0  0  0  0  0  0  0  0  0  0
   -3.6436    1.0590    0.0000 C   0  0  0  0  0  0  0  0  0  0  0  0
   -4.1900   -0.3379    0.0000 C   0  0  0  0  0  0  0  0  0  0  0  0
   -3.2534   -1.5096    0.0000 C   0  0  0  0  0  0  0  0  0  0  0  0
   -1.7704   -1.2843    0.0000 N   0  0  0  0  0  0  0  0  0  0  0  0
   -0.8338   -2.4559    0.0000 C   0  0  0  0  0  0  0  0  0  0  0  0
    0.6492   -2.2306    0.0000 C   0  0  0  0  0  0  0  0  0  0  0  0
    1.1956   -0.8337    0.0000 C   0  0  0  0  0  0  0  0  0  0  0  0
    0.2590    0.3380    0.0000 C   0  0  0  0  0  0  0  0  0  0  0  0
   -1.2240    0.1127    0.0000 C   0  0  0  0  0  0  0  0  0  0  0  0
    2.1322   -2.0053    0.0000 O   0  0  0  0  0  0  0  0  0  0  0  0
    3.6152   -1.7801    0.0000 C   0  0  0  0  0  0  0  0  0  0  0  0
    4.1616   -0.3831    0.0000 C   0  0  0  0  0  0  0  0  0  0  0  0
    5.6445   -0.1578    0.0000 C   0  0  0  0  0  0  0  0  0  0  0  0
    6.1909    1.2391    0.0000 C   0  0  0  0  0  0  0  0  0  0  0  0
    5.2543    2.4108    0.0000 C   0  0  0  0  0  0  0  0  0  0  0  0
    3.7714    2.1855    0.0000 C   0  0  0  0  0  0  0  0  0  0  0  0
    3.2250    0.7885    0.0000 C   0  0  0  0  0  0  0  0  0  0  0  0
    1.7420    0.5633    0.0000 S   0  0  0  0  0  0  0  0  0  0  0  0
   -5.6729   -0.5632    0.0000 C   0  0  0  0  0  0  0  0  0  0  0  0
   -6.6095    0.6085    0.0000 C   0  0  0  0  0  0  0  0  0  0  0  0
  1  2  2  0
  2  3  1  0
  3  4  2  0
  4  5  1  0
  5  6  1  0
  6  7  1  0
  7  8  1  0
  8  9  1  0
  9 10  1  0
 10 11  1  0
  9 12  1  0
 12 13  1  0
 13 14  1  0
 14 15  2  0
 15 16  1  0
 16 17  2  0
 17 18  1  0
 18 19  2  0
 19 20  1  0
  4 21  1  0
 21 22  2  0
 22  1  1  0
 11  6  1  0
 19 14  1  0
 20  9  1  0
M  END
>  <Compound_Key>  (1222) 
Spptn-9

>  <Ki>  (1222) 
224.0

>  <database>  (1222) 
NewLiterature

>  <Document_ChEMBL_ID>  (1222) 
10.1021/acs.jmedchem.0c02265

$$$$

     RDKit          2D

 22 25  0  0  0  0  0  0  0  0999 V2000
   -6.0632    2.0054    0.0000 C   0  0  0  0  0  0  0  0  0  0  0  0
   -4.5802    2.2307    0.0000 C   0  0  0  0  0  0  0  0  0  0  0  0
   -3.6436    1.0590    0.0000 C   0  0  0  0  0  0  0  0  0  0  0  0
   -4.1900   -0.3379    0.0000 C   0  0  0  0  0  0  0  0  0  0  0  0
   -3.2534   -1.5096    0.0000 C   0  0  0  0  0  0  0  0  0  0  0  0
   -1.7704   -1.2843    0.0000 N   0  0  0  0  0  0  0  0  0  0  0  0
   -0.8338   -2.4559    0.0000 C   0  0  0  0  0  0  0  0  0  0  0  0
    0.6492   -2.2306    0.0000 C   0  0  0  0  0  0  0  0  0  0  0  0
    1.1956   -0.8337    0.0000 C   0  0  0  0  0  0  0  0  0  0  0  0
    0.2590    0.3380    0.0000 C   0  0  0  0  0  0  0  0  0  0  0  0
   -1.2240    0.1127    0.0000 C   0  0  0  0  0  0  0  0  0  0  0  0
    2.1322   -2.0053    0.0000 O   0  0  0  0  0  0  0  0  0  0  0  0
    3.6152   -1.7801    0.0000 C   0  0  0  0  0  0  0  0  0  0  0  0
    4.1616   -0.3831    0.0000 C   0  0  0  0  0  0  0  0  0  0  0  0
    5.6445   -0.1578    0.0000 C   0  0  0  0  0  0  0  0  0  0  0  0
    6.1909    1.2391    0.0000 C   0  0  0  0  0  0  0  0  0  0  0  0
    5.2543    2.4108    0.0000 C   0  0  0  0  0  0  0  0  0  0  0  0
    3.7714    2.1855    0.0000 C   0  0  0  0  0  0  0  0  0  0  0  0
    3.2250    0.7885    0.0000 C   0  0  0  0  0  0  0  0  0  0  0  0
    1.7420    0.5633    0.0000 O   0  0  0  0  0  0  0  0  0  0  0  0
   -5.6729   -0.5632    0.0000 C   0  0  0  0  0  0  0  0  0  0  0  0
   -6.6095    0.6085    0.0000 C   0  0  0  0  0  0  0  0  0  0  0  0
  1  2  2  0
  2  3  1  0
  3  4  2  0
  4  5  1  0
  5  6  1  0
  6  7  1  0
  7  8  1  0
  8  9  1  0
  9 10  1  0
 10 11  1  0
  9 12  1  0
 12 13  1  0
 13 14  1  0
 14 15  2  0
 15 16  1  0
 16 17  2  0
 17 18  1  0
 18 19  2  0
 19 20  1  0
  4 21  1  0
 21 22  2  0
 22  1  1  0
 11  6  1  0
 19 14  1  0
 20  9  1  0
M  END
>  <Compound_Key>  (1223) 
Spptn-10

>  <Ki>  (1223) 
229.0

>  <database>  (1223) 
NewLiterature

>  <Document_ChEMBL_ID>  (1223) 
10.1021/acs.jmedchem.0c02265

$$$$

     RDKit          2D

 23 26  0  0  0  0  0  0  0  0999 V2000
   -4.4679    2.6392    0.0000 O   0  0  0  0  0  0  0  0  0  0  0  0
   -3.4832    1.5076    0.0000 C   0  0  0  0  0  0  0  0  0  0  0  0
   -2.0110    1.7946    0.0000 C   0  0  0  0  0  0  0  0  0  0  0  0
   -1.0263    0.6631    0.0000 C   0  0  0  0  0  0  0  0  0  0  0  0
   -0.0416   -0.4684    0.0000 C   0  0  0  0  0  0  0  0  0  0  0  0
    1.4307   -0.1814    0.0000 C   0  0  0  0  0  0  0  0  0  0  0  0
    1.9183    1.2371    0.0000 N   0  0  0  0  0  0  0  0  0  0  0  0
    3.3906    1.5241    0.0000 C   0  0  0  0  0  0  0  0  0  0  0  0
    4.3753    0.3926    0.0000 C   0  0  0  0  0  0  0  0  0  0  0  0
    3.8877   -1.0260    0.0000 C   0  0  0  0  0  0  0  0  0  0  0  0
    4.8724   -2.1575    0.0000 C   0  0  0  0  0  0  0  0  0  0  0  0
    6.3447   -1.8705    0.0000 C   0  0  0  0  0  0  0  0  0  0  0  0
    6.8323   -0.4520    0.0000 C   0  0  0  0  0  0  0  0  0  0  0  0
    5.8476    0.6796    0.0000 C   0  0  0  0  0  0  0  0  0  0  0  0
    0.9336    2.3686    0.0000 C   0  0  0  0  0  0  0  0  0  0  0  0
   -0.5387    2.0816    0.0000 C   0  0  0  0  0  0  0  0  0  0  0  0
   -1.5139   -0.7555    0.0000 O   0  0  0  0  0  0  0  0  0  0  0  0
   -2.9861   -1.0425    0.0000 C   0  0  0  0  0  0  0  0  0  0  0  0
   -3.4737   -2.4610    0.0000 C   0  0  0  0  0  0  0  0  0  0  0  0
   -4.9460   -2.7480    0.0000 C   0  0  0  0  0  0  0  0  0  0  0  0
   -5.9307   -1.6165    0.0000 C   0  0  0  0  0  0  0  0  0  0  0  0
   -5.4431   -0.1979    0.0000 C   0  0  0  0  0  0  0  0  0  0  0  0
   -3.9708    0.0891    0.0000 C   0  0  0  0  0  0  0  0  0  0  0  0
  1  2  2  0
  2  3  1  0
  3  4  1  0
  4  5  1  0
  5  6  1  0
  6  7  1  0
  7  8  1  0
  8  9  1  0
  9 10  2  0
 10 11  1  0
 11 12  2  0
 12 13  1  0
 13 14  2  0
  7 15  1  0
 15 16  1  0
  4 17  1  0
 17 18  1  0
 18 19  2  0
 19 20  1  0
 20 21  2  0
 21 22  1  0
 22 23  2  0
 23  2  1  0
 16  4  1  0
 23 18  1  0
 14  9  1  0
M  END
>  <Compound_Key>  (1224) 
Spptn-11

>  <Ki>  (1224) 
302.0

>  <database>  (1224) 
NewLiterature

>  <Document_ChEMBL_ID>  (1224) 
10.1021/acs.jmedchem.0c02265

$$$$

     RDKit          2D

 23 26  0  0  0  0  0  0  0  0999 V2000
   -6.6975    2.1489    0.0000 C   0  0  0  0  0  0  0  0  0  0  0  0
   -5.2083    2.3289    0.0000 C   0  0  0  0  0  0  0  0  0  0  0  0
   -4.3079    1.1292    0.0000 C   0  0  0  0  0  0  0  0  0  0  0  0
   -4.8966   -0.2504    0.0000 C   0  0  0  0  0  0  0  0  0  0  0  0
   -3.9962   -1.4501    0.0000 C   0  0  0  0  0  0  0  0  0  0  0  0
   -2.5070   -1.2701    0.0000 N   0  0  0  0  0  0  0  0  0  0  0  0
   -1.6066   -2.4698    0.0000 C   0  0  0  0  0  0  0  0  0  0  0  0
   -0.1174   -2.2898    0.0000 C   0  0  0  0  0  0  0  0  0  0  0  0
    0.4713   -0.9102    0.0000 C   0  0  0  0  0  0  0  0  0  0  0  0
    1.9605   -0.7302    0.0000 C   0  0  0  0  0  0  0  0  0  0  0  0
    2.8609   -1.9299    0.0000 C   0  0  0  0  0  0  0  0  0  0  0  0
    4.3501   -1.7499    0.0000 C   0  0  0  0  0  0  0  0  0  0  0  0
    4.9388   -0.3703    0.0000 C   0  0  0  0  0  0  0  0  0  0  0  0
    6.4280   -0.1903    0.0000 C   0  0  0  0  0  0  0  0  0  0  0  0
    7.0167    1.1893    0.0000 C   0  0  0  0  0  0  0  0  0  0  0  0
    6.1163    2.3890    0.0000 C   0  0  0  0  0  0  0  0  0  0  0  0
    4.6271    2.2090    0.0000 C   0  0  0  0  0  0  0  0  0  0  0  0
    4.0384    0.8294    0.0000 C   0  0  0  0  0  0  0  0  0  0  0  0
    2.5492    0.6494    0.0000 S   0  0  0  0  0  0  0  0  0  0  0  0
   -0.4291    0.2895    0.0000 C   0  0  0  0  0  0  0  0  0  0  0  0
   -1.9183    0.1095    0.0000 C   0  0  0  0  0  0  0  0  0  0  0  0
   -6.3858   -0.4304    0.0000 C   0  0  0  0  0  0  0  0  0  0  0  0
   -7.2862    0.7693    0.0000 C   0  0  0  0  0  0  0  0  0  0  0  0
  1  2  2  0
  2  3  1  0
  3  4  2  0
  4  5  1  0
  5  6  1  0
  6  7  1  0
  7  8  1  0
  8  9  1  0
  9 10  1  0
 10 11  1  0
 11 12  1  0
 12 13  1  0
 13 14  2  0
 14 15  1  0
 15 16  2  0
 16 17  1  0
 17 18  2  0
 18 19  1  0
  9 20  1  0
 20 21  1  0
  4 22  1  0
 22 23  2  0
 23  1  1  0
 21  6  1  0
 19 10  1  0
 18 13  1  0
M  END
>  <Compound_Key>  (1225) 
Spptn-12

>  <Ki>  (1225) 
57.5

>  <database>  (1225) 
NewLiterature

>  <Document_ChEMBL_ID>  (1225) 
10.1021/acs.jmedchem.0c02265

$$$$

     RDKit          2D

 24 27  0  0  0  0  0  0  0  0999 V2000
    3.9555    3.2390    0.0000 O   0  0  0  0  0  0  0  0  0  0  0  0
    3.5654    1.7906    0.0000 C   0  0  0  0  0  0  0  0  0  0  0  0
    2.1160    1.4043    0.0000 C   0  0  0  0  0  0  0  0  0  0  0  0
    1.7258   -0.0441    0.0000 C   0  0  0  0  0  0  0  0  0  0  0  0
    0.2764   -0.4305    0.0000 C   0  0  0  0  0  0  0  0  0  0  0  0
   -0.7828    0.6316    0.0000 C   0  0  0  0  0  0  0  0  0  0  0  0
   -2.2322    0.2452    0.0000 C   0  0  0  0  0  0  0  0  0  0  0  0
   -2.6223   -1.2031    0.0000 N   0  0  0  0  0  0  0  0  0  0  0  0
   -4.0717   -1.5895    0.0000 C   0  0  0  0  0  0  0  0  0  0  0  0
   -5.1310   -0.5274    0.0000 C   0  0  0  0  0  0  0  0  0  0  0  0
   -4.7409    0.9210    0.0000 C   0  0  0  0  0  0  0  0  0  0  0  0
   -5.8002    1.9830    0.0000 C   0  0  0  0  0  0  0  0  0  0  0  0
   -7.2496    1.5967    0.0000 C   0  0  0  0  0  0  0  0  0  0  0  0
   -7.6397    0.1483    0.0000 C   0  0  0  0  0  0  0  0  0  0  0  0
   -6.5804   -0.9138    0.0000 C   0  0  0  0  0  0  0  0  0  0  0  0
   -1.5631   -2.2652    0.0000 C   0  0  0  0  0  0  0  0  0  0  0  0
   -0.1137   -1.8788    0.0000 C   0  0  0  0  0  0  0  0  0  0  0  0
    2.7851   -1.1062    0.0000 O   0  0  0  0  0  0  0  0  0  0  0  0
    4.2345   -0.7198    0.0000 C   0  0  0  0  0  0  0  0  0  0  0  0
    5.2938   -1.7819    0.0000 C   0  0  0  0  0  0  0  0  0  0  0  0
    6.7432   -1.3955    0.0000 C   0  0  0  0  0  0  0  0  0  0  0  0
    7.1333    0.0528    0.0000 C   0  0  0  0  0  0  0  0  0  0  0  0
    6.0740    1.1149    0.0000 C   0  0  0  0  0  0  0  0  0  0  0  0
    4.6246    0.7285    0.0000 C   0  0  0  0  0  0  0  0  0  0  0  0
  1  2  2  0
  2  3  1  0
  3  4  1  0
  4  5  1  0
  5  6  1  0
  6  7  1  0
  7  8  1  0
  8  9  1  0
  9 10  1  0
 10 11  2  0
 11 12  1  0
 12 13  2  0
 13 14  1  0
 14 15  2  0
  8 16  1  0
 16 17  1  0
  4 18  1  0
 18 19  1  0
 19 20  2  0
 20 21  1  0
 21 22  2  0
 22 23  1  0
 23 24  2  0
 24  2  1  0
 17  5  1  0
 24 19  1  0
 15 10  1  0
M  END
>  <Compound_Key>  (1226) 
Spptn-13

>  <Ki>  (1226) 
174.0

>  <database>  (1226) 
NewLiterature

>  <Document_ChEMBL_ID>  (1226) 
10.1021/acs.jmedchem.0c02265

$$$$

     RDKit          2D

 25 28  0  0  0  0  0  0  0  0999 V2000
    5.0118    3.1233    0.0000 O   0  0  0  0  0  0  0  0  0  0  0  0
    4.4512    1.7319    0.0000 C   0  0  0  0  0  0  0  0  0  0  0  0
    2.9660    1.5218    0.0000 C   0  0  0  0  0  0  0  0  0  0  0  0
    2.4054    0.1305    0.0000 C   0  0  0  0  0  0  0  0  0  0  0  0
    0.9202   -0.0797    0.0000 C   0  0  0  0  0  0  0  0  0  0  0  0
   -0.0044    1.1014    0.0000 C   0  0  0  0  0  0  0  0  0  0  0  0
   -1.4896    0.8913    0.0000 C   0  0  0  0  0  0  0  0  0  0  0  0
   -2.0502   -0.5000    0.0000 N   0  0  0  0  0  0  0  0  0  0  0  0
   -3.5354   -0.7102    0.0000 C   0  0  0  0  0  0  0  0  0  0  0  0
   -4.4600    0.4709    0.0000 C   0  0  0  0  0  0  0  0  0  0  0  0
   -5.9452    0.2608    0.0000 C   0  0  0  0  0  0  0  0  0  0  0  0
   -6.8698    1.4419    0.0000 C   0  0  0  0  0  0  0  0  0  0  0  0
   -8.3550    1.2317    0.0000 C   0  0  0  0  0  0  0  0  0  0  0  0
   -8.9156   -0.1596    0.0000 C   0  0  0  0  0  0  0  0  0  0  0  0
   -7.9910   -1.3407    0.0000 C   0  0  0  0  0  0  0  0  0  0  0  0
   -6.5058   -1.1305    0.0000 C   0  0  0  0  0  0  0  0  0  0  0  0
   -1.1256   -1.6812    0.0000 C   0  0  0  0  0  0  0  0  0  0  0  0
    0.3597   -1.4710    0.0000 C   0  0  0  0  0  0  0  0  0  0  0  0
    3.3301   -1.0507    0.0000 O   0  0  0  0  0  0  0  0  0  0  0  0
    4.8153   -0.8405    0.0000 C   0  0  0  0  0  0  0  0  0  0  0  0
    5.7399   -2.0216    0.0000 C   0  0  0  0  0  0  0  0  0  0  0  0
    7.2251   -1.8115    0.0000 C   0  0  0  0  0  0  0  0  0  0  0  0
    7.7857   -0.4202    0.0000 C   0  0  0  0  0  0  0  0  0  0  0  0
    6.8611    0.7610    0.0000 C   0  0  0  0  0  0  0  0  0  0  0  0
    5.3759    0.5508    0.0000 C   0  0  0  0  0  0  0  0  0  0  0  0
  1  2  2  0
  2  3  1  0
  3  4  1  0
  4  5  1  0
  5  6  1  0
  6  7  1  0
  7  8  1  0
  8  9  1  0
  9 10  1  0
 10 11  1  0
 11 12  2  0
 12 13  1  0
 13 14  2  0
 14 15  1  0
 15 16  2  0
  8 17  1  0
 17 18  1  0
  4 19  1  0
 19 20  1  0
 20 21  2  0
 21 22  1  0
 22 23  2  0
 23 24  1  0
 24 25  2  0
 25  2  1  0
 18  5  1  0
 25 20  1  0
 16 11  1  0
M  END
>  <Compound_Key>  (1227) 
Spptn-15

>  <Ki>  (1227) 
8.32

>  <database>  (1227) 
NewLiterature

>  <Document_ChEMBL_ID>  (1227) 
10.1021/acs.jmedchem.0c02265

$$$$

     RDKit          2D

 21 24  0  0  0  0  0  0  0  0999 V2000
   -4.2432   -3.0738    0.0000 O   0  0  0  0  0  0  0  0  0  0  0  0
   -3.4671   -1.7902    0.0000 C   0  0  0  0  0  0  0  0  0  0  0  0
   -1.9724   -1.6636    0.0000 O   0  0  0  0  0  0  0  0  0  0  0  0
   -1.6309   -0.2030    0.0000 C   0  0  0  0  0  0  0  0  0  0  0  0
   -0.4355   -1.1090    0.0000 C   0  0  0  0  0  0  0  0  0  0  0  0
    0.9469   -0.5268    0.0000 C   0  0  0  0  0  0  0  0  0  0  0  0
    1.1338    0.9615    0.0000 N   0  0  0  0  0  0  0  0  0  0  0  0
    2.5162    1.5438    0.0000 C   0  0  0  0  0  0  0  0  0  0  0  0
    3.7117    0.6377    0.0000 C   0  0  0  0  0  0  0  0  0  0  0  0
    3.5247   -0.8506    0.0000 C   0  0  0  0  0  0  0  0  0  0  0  0
    4.7202   -1.7566    0.0000 C   0  0  0  0  0  0  0  0  0  0  0  0
    6.1025   -1.1743    0.0000 C   0  0  0  0  0  0  0  0  0  0  0  0
    6.2895    0.3140    0.0000 C   0  0  0  0  0  0  0  0  0  0  0  0
    5.0940    1.2200    0.0000 C   0  0  0  0  0  0  0  0  0  0  0  0
   -0.0616    1.8676    0.0000 C   0  0  0  0  0  0  0  0  0  0  0  0
   -1.4440    1.2853    0.0000 C   0  0  0  0  0  0  0  0  0  0  0  0
   -2.9145    0.5731    0.0000 C   0  0  0  0  0  0  0  0  0  0  0  0
   -3.4968    1.9555    0.0000 C   0  0  0  0  0  0  0  0  0  0  0  0
   -4.9914    1.8289    0.0000 S   0  0  0  0  0  0  0  0  0  0  0  0
   -5.3329    0.3683    0.0000 C   0  0  0  0  0  0  0  0  0  0  0  0
   -4.0493   -0.4078    0.0000 C   0  0  0  0  0  0  0  0  0  0  0  0
  1  2  2  0
  2  3  1  0
  3  4  1  0
  4  5  1  0
  5  6  1  0
  6  7  1  0
  7  8  1  0
  8  9  1  0
  9 10  2  0
 10 11  1  0
 11 12  2  0
 12 13  1  0
 13 14  2  0
  7 15  1  0
 15 16  1  0
  4 17  1  0
 17 18  2  0
 18 19  1  0
 19 20  1  0
 20 21  2  0
 21  2  1  0
 16  4  1  0
 21 17  1  0
 14  9  1  0
M  END
>  <Compound_Key>  (1228) 
16

>  <Ki>  (1228) 
379.0

>  <database>  (1228) 
NewLiterature

>  <Document_ChEMBL_ID>  (1228) 
10.1021/acs.jmedchem.0c02265

$$$$

     RDKit          2D

 23 26  0  0  0  0  0  0  0  0999 V2000
   -4.7655   -3.8195    0.0000 C   0  0  0  0  0  0  0  0  0  0  0  0
   -3.3448   -3.3381    0.0000 O   0  0  0  0  0  0  0  0  0  0  0  0
   -3.0513   -1.8671    0.0000 C   0  0  0  0  0  0  0  0  0  0  0  0
   -4.1785   -0.8775    0.0000 C   0  0  0  0  0  0  0  0  0  0  0  0
   -3.8851    0.5935    0.0000 C   0  0  0  0  0  0  0  0  0  0  0  0
   -4.7819    1.7959    0.0000 S   0  0  0  0  0  0  0  0  0  0  0  0
   -3.9155    3.0204    0.0000 C   0  0  0  0  0  0  0  0  0  0  0  0
   -2.4832    2.5748    0.0000 C   0  0  0  0  0  0  0  0  0  0  0  0
   -2.4644    1.0749    0.0000 C   0  0  0  0  0  0  0  0  0  0  0  0
   -1.3372    0.0852    0.0000 C   0  0  0  0  0  0  0  0  0  0  0  0
   -0.2100   -0.9044    0.0000 C   0  0  0  0  0  0  0  0  0  0  0  0
    1.2107   -0.4231    0.0000 C   0  0  0  0  0  0  0  0  0  0  0  0
    1.5041    1.0479    0.0000 N   0  0  0  0  0  0  0  0  0  0  0  0
    2.9248    1.5293    0.0000 C   0  0  0  0  0  0  0  0  0  0  0  0
    4.0520    0.5396    0.0000 C   0  0  0  0  0  0  0  0  0  0  0  0
    3.7585   -0.9314    0.0000 C   0  0  0  0  0  0  0  0  0  0  0  0
    4.8857   -1.9210    0.0000 C   0  0  0  0  0  0  0  0  0  0  0  0
    6.3064   -1.4397    0.0000 C   0  0  0  0  0  0  0  0  0  0  0  0
    6.5999    0.0313    0.0000 C   0  0  0  0  0  0  0  0  0  0  0  0
    5.4727    1.0210    0.0000 C   0  0  0  0  0  0  0  0  0  0  0  0
    0.3769    2.0376    0.0000 C   0  0  0  0  0  0  0  0  0  0  0  0
   -1.0437    1.5562    0.0000 C   0  0  0  0  0  0  0  0  0  0  0  0
   -1.6307   -1.3858    0.0000 O   0  0  0  0  0  0  0  0  0  0  0  0
  1  2  1  0
  2  3  1  0
  3  4  1  0
  4  5  1  0
  5  6  1  0
  6  7  1  0
  7  8  2  0
  8  9  1  0
  9 10  1  0
 10 11  1  0
 11 12  1  0
 12 13  1  0
 13 14  1  0
 14 15  1  0
 15 16  2  0
 16 17  1  0
 17 18  2  0
 18 19  1  0
 19 20  2  0
 13 21  1  0
 21 22  1  0
 10 23  1  0
 23  3  1  0
  9  5  2  0
 22 10  1  0
 20 15  1  0
M  END
>  <Compound_Key>  (1229) 
17

>  <Ki>  (1229) 
1260.0

>  <database>  (1229) 
NewLiterature

>  <Document_ChEMBL_ID>  (1229) 
10.1021/acs.jmedchem.0c02265

$$$$

     RDKit          2D

 23 26  0  0  0  0  0  0  0  0999 V2000
   -4.7655   -3.8195    0.0000 C   0  0  0  0  0  0  0  0  0  0  0  0
   -3.3448   -3.3381    0.0000 O   0  0  0  0  0  0  0  0  0  0  0  0
   -3.0513   -1.8671    0.0000 C   0  0  0  0  0  0  0  0  0  0  0  0
   -4.1785   -0.8775    0.0000 C   0  0  0  0  0  0  0  0  0  0  0  0
   -3.8851    0.5935    0.0000 C   0  0  0  0  0  0  0  0  0  0  0  0
   -4.7819    1.7959    0.0000 C   0  0  0  0  0  0  0  0  0  0  0  0
   -3.9155    3.0204    0.0000 S   0  0  0  0  0  0  0  0  0  0  0  0
   -2.4832    2.5748    0.0000 C   0  0  0  0  0  0  0  0  0  0  0  0
   -2.4644    1.0749    0.0000 C   0  0  0  0  0  0  0  0  0  0  0  0
   -1.3372    0.0852    0.0000 C   0  0  0  0  0  0  0  0  0  0  0  0
   -0.2100   -0.9044    0.0000 C   0  0  0  0  0  0  0  0  0  0  0  0
    1.2107   -0.4231    0.0000 C   0  0  0  0  0  0  0  0  0  0  0  0
    1.5041    1.0479    0.0000 N   0  0  0  0  0  0  0  0  0  0  0  0
    2.9248    1.5293    0.0000 C   0  0  0  0  0  0  0  0  0  0  0  0
    4.0520    0.5396    0.0000 C   0  0  0  0  0  0  0  0  0  0  0  0
    3.7585   -0.9314    0.0000 C   0  0  0  0  0  0  0  0  0  0  0  0
    4.8857   -1.9210    0.0000 C   0  0  0  0  0  0  0  0  0  0  0  0
    6.3064   -1.4397    0.0000 C   0  0  0  0  0  0  0  0  0  0  0  0
    6.5999    0.0313    0.0000 C   0  0  0  0  0  0  0  0  0  0  0  0
    5.4727    1.0210    0.0000 C   0  0  0  0  0  0  0  0  0  0  0  0
    0.3769    2.0376    0.0000 C   0  0  0  0  0  0  0  0  0  0  0  0
   -1.0437    1.5562    0.0000 C   0  0  0  0  0  0  0  0  0  0  0  0
   -1.6307   -1.3858    0.0000 O   0  0  0  0  0  0  0  0  0  0  0  0
  1  2  1  0
  2  3  1  0
  3  4  1  0
  4  5  1  0
  5  6  2  0
  6  7  1  0
  7  8  1  0
  8  9  2  0
  9 10  1  0
 10 11  1  0
 11 12  1  0
 12 13  1  0
 13 14  1  0
 14 15  1  0
 15 16  2  0
 16 17  1  0
 17 18  2  0
 18 19  1  0
 19 20  2  0
 13 21  1  0
 21 22  1  0
 10 23  1  0
 23  3  1  0
  9  5  1  0
 22 10  1  0
 20 15  1  0
M  END
>  <Compound_Key>  (1230) 
18

>  <Ki>  (1230) 
806.0

>  <database>  (1230) 
NewLiterature

>  <Document_ChEMBL_ID>  (1230) 
10.1021/acs.jmedchem.0c02265

$$$$

     RDKit          2D

 31 35  0  0  0  0  0  0  0  0999 V2000
   -1.9556   -4.5539    0.0000 C   0  0  0  0  0  0  0  0  0  0  0  0
   -0.6071   -3.8969    0.0000 O   0  0  0  0  0  0  0  0  0  0  0  0
   -0.5019   -2.4006    0.0000 C   0  0  0  0  0  0  0  0  0  0  0  0
   -1.7451   -1.5613    0.0000 C   0  0  0  0  0  0  0  0  0  0  0  0
   -1.6399   -0.0650    0.0000 C   0  0  0  0  0  0  0  0  0  0  0  0
   -0.2915    0.5921    0.0000 C   0  0  0  0  0  0  0  0  0  0  0  0
   -0.4997    2.0775    0.0000 C   0  0  0  0  0  0  0  0  0  0  0  0
   -1.9768    2.3386    0.0000 S   0  0  0  0  0  0  0  0  0  0  0  0
   -2.6815    1.0144    0.0000 C   0  0  0  0  0  0  0  0  0  0  0  0
   -4.1670    0.8063    0.0000 C   0  0  0  0  0  0  0  0  0  0  0  0
   -5.0900    1.9886    0.0000 C   0  0  0  0  0  0  0  0  0  0  0  0
   -6.5755    1.7805    0.0000 C   0  0  0  0  0  0  0  0  0  0  0  0
   -7.1379    0.3899    0.0000 C   0  0  0  0  0  0  0  0  0  0  0  0
   -8.6234    0.1817    0.0000 C   0  0  0  0  0  0  0  0  0  0  0  0
  -10.1089   -0.0265    0.0000 N   0  0  0  0  0  0  0  0  0  0  0  0
   -6.2149   -0.7925    0.0000 C   0  0  0  0  0  0  0  0  0  0  0  0
   -4.7294   -0.5843    0.0000 C   0  0  0  0  0  0  0  0  0  0  0  0
    0.9518   -0.2472    0.0000 C   0  0  0  0  0  0  0  0  0  0  0  0
    2.1950   -1.0865    0.0000 C   0  0  0  0  0  0  0  0  0  0  0  0
    3.5434   -0.4295    0.0000 C   0  0  0  0  0  0  0  0  0  0  0  0
    3.6486    1.0668    0.0000 N   0  0  0  0  0  0  0  0  0  0  0  0
    4.9971    1.7239    0.0000 C   0  0  0  0  0  0  0  0  0  0  0  0
    6.2403    0.8846    0.0000 C   0  0  0  0  0  0  0  0  0  0  0  0
    6.1351   -0.6117    0.0000 C   0  0  0  0  0  0  0  0  0  0  0  0
    7.3783   -1.4510    0.0000 C   0  0  0  0  0  0  0  0  0  0  0  0
    8.7268   -0.7939    0.0000 C   0  0  0  0  0  0  0  0  0  0  0  0
    8.8320    0.7024    0.0000 C   0  0  0  0  0  0  0  0  0  0  0  0
    7.5888    1.5416    0.0000 C   0  0  0  0  0  0  0  0  0  0  0  0
    2.4054    1.9061    0.0000 C   0  0  0  0  0  0  0  0  0  0  0  0
    1.0570    1.2491    0.0000 C   0  0  0  0  0  0  0  0  0  0  0  0
    0.8465   -1.7435    0.0000 O   0  0  0  0  0  0  0  0  0  0  0  0
  1  2  1  0
  2  3  1  0
  3  4  1  0
  4  5  1  0
  5  6  1  0
  6  7  2  0
  7  8  1  0
  8  9  1  0
  9 10  1  0
 10 11  2  0
 11 12  1  0
 12 13  2  0
 13 14  1  0
 14 15  3  0
 13 16  1  0
 16 17  2  0
  6 18  1  0
 18 19  1  0
 19 20  1  0
 20 21  1  0
 21 22  1  0
 22 23  1  0
 23 24  2  0
 24 25  1  0
 25 26  2  0
 26 27  1  0
 27 28  2  0
 21 29  1  0
 29 30  1  0
 18 31  1  0
 31  3  1  0
  9  5  2  0
 17 10  1  0
 30 18  1  0
 28 23  1  0
M  END
>  <Compound_Key>  (1231) 
20

>  <Ki>  (1231) 
923.0

>  <database>  (1231) 
NewLiterature

>  <Document_ChEMBL_ID>  (1231) 
10.1021/acs.jmedchem.0c02265

$$$$

     RDKit          2D

 24 26  0  0  0  0  0  0  0  0999 V2000
   -1.9266    1.8409    0.0000 C   0  0  0  0  0  0  0  0  0  0  0  0
   -1.0752    0.6060    0.0000 N   0  0  0  0  0  0  0  0  0  0  0  0
    0.4200    0.7258    0.0000 C   0  0  0  0  0  0  0  0  0  0  0  0
    1.0638    2.0806    0.0000 O   0  0  0  0  0  0  0  0  0  0  0  0
    1.2714   -0.5091    0.0000 C   0  0  0  0  0  0  0  0  0  0  0  0
    2.7666   -0.3893    0.0000 C   0  0  0  0  0  0  0  0  0  0  0  0
    3.6180   -1.6243    0.0000 C   0  0  0  0  0  0  0  0  0  0  0  0
    5.1132   -1.5044    0.0000 C   0  0  0  0  0  0  0  0  0  0  0  0
    5.7570   -0.1496    0.0000 C   0  0  0  0  0  0  0  0  0  0  0  0
    7.2522   -0.0298    0.0000 Cl  0  0  0  0  0  0  0  0  0  0  0  0
    4.9056    1.0854    0.0000 C   0  0  0  0  0  0  0  0  0  0  0  0
    5.5494    2.4402    0.0000 Cl  0  0  0  0  0  0  0  0  0  0  0  0
    3.4104    0.9655    0.0000 C   0  0  0  0  0  0  0  0  0  0  0  0
   -1.7190   -0.7488    0.0000 C   0  0  0  0  0  0  0  0  0  0  0  0
   -0.8676   -1.9838    0.0000 C   0  0  0  0  0  0  0  0  0  0  0  0
   -1.5114   -3.3386    0.0000 C   0  0  0  0  0  0  0  0  0  0  0  0
   -3.0066   -3.4585    0.0000 C   0  0  0  0  0  0  0  0  0  0  0  0
   -3.8580   -2.2235    0.0000 C   0  0  0  0  0  0  0  0  0  0  0  0
   -3.2142   -0.8687    0.0000 C   0  0  0  0  0  0  0  0  0  0  0  0
   -4.0656    0.3663    0.0000 N   0  0  0  0  0  0  0  0  0  0  0  0
   -5.5651    0.4034    0.0000 C   0  0  0  0  0  0  0  0  0  0  0  0
   -5.9932    1.8410    0.0000 C   0  0  0  0  0  0  0  0  0  0  0  0
   -4.7583    2.6924    0.0000 C   0  0  0  0  0  0  0  0  0  0  0  0
   -3.5669    1.7810    0.0000 C   0  0  0  0  0  0  0  0  0  0  0  0
  1  2  1  0
  2  3  1  0
  3  4  2  0
  3  5  1  0
  5  6  1  0
  6  7  2  0
  7  8  1  0
  8  9  2  0
  9 10  1  0
  9 11  1  0
 11 12  1  0
 11 13  2  0
 14  2  1  6
 14 15  1  0
 15 16  1  0
 16 17  1  0
 17 18  1  0
 18 19  1  0
 19 20  1  6
 20 21  1  0
 21 22  1  0
 22 23  1  0
 23 24  1  0
 13  6  1  0
 19 14  1  0
 24 20  1  0
M  END
>  <Compound_Key>  (1232) 
(+)-1R,2S-22

>  <Ki>  (1232) 
118.0

>  <database>  (1232) 
NewLiterature

>  <Document_ChEMBL_ID>  (1232) 
10.1021/acs.jmedchem.0c02265

$$$$

     RDKit          2D

 24 26  0  0  0  0  0  0  0  0999 V2000
   -1.9266    1.8409    0.0000 C   0  0  0  0  0  0  0  0  0  0  0  0
   -1.0752    0.6060    0.0000 N   0  0  0  0  0  0  0  0  0  0  0  0
    0.4200    0.7258    0.0000 C   0  0  0  0  0  0  0  0  0  0  0  0
    1.0638    2.0806    0.0000 O   0  0  0  0  0  0  0  0  0  0  0  0
    1.2714   -0.5091    0.0000 C   0  0  0  0  0  0  0  0  0  0  0  0
    2.7666   -0.3893    0.0000 C   0  0  0  0  0  0  0  0  0  0  0  0
    3.6180   -1.6243    0.0000 C   0  0  0  0  0  0  0  0  0  0  0  0
    5.1132   -1.5044    0.0000 C   0  0  0  0  0  0  0  0  0  0  0  0
    5.7570   -0.1496    0.0000 C   0  0  0  0  0  0  0  0  0  0  0  0
    7.2522   -0.0298    0.0000 Cl  0  0  0  0  0  0  0  0  0  0  0  0
    4.9056    1.0854    0.0000 C   0  0  0  0  0  0  0  0  0  0  0  0
    5.5494    2.4402    0.0000 Cl  0  0  0  0  0  0  0  0  0  0  0  0
    3.4104    0.9655    0.0000 C   0  0  0  0  0  0  0  0  0  0  0  0
   -1.7190   -0.7488    0.0000 C   0  0  0  0  0  0  0  0  0  0  0  0
   -0.8676   -1.9838    0.0000 C   0  0  0  0  0  0  0  0  0  0  0  0
   -1.5114   -3.3386    0.0000 C   0  0  0  0  0  0  0  0  0  0  0  0
   -3.0066   -3.4585    0.0000 C   0  0  0  0  0  0  0  0  0  0  0  0
   -3.8580   -2.2235    0.0000 C   0  0  0  0  0  0  0  0  0  0  0  0
   -3.2142   -0.8687    0.0000 C   0  0  0  0  0  0  0  0  0  0  0  0
   -4.0656    0.3663    0.0000 N   0  0  0  0  0  0  0  0  0  0  0  0
   -5.5651    0.4034    0.0000 C   0  0  0  0  0  0  0  0  0  0  0  0
   -5.9932    1.8410    0.0000 C   0  0  0  0  0  0  0  0  0  0  0  0
   -4.7583    2.6924    0.0000 C   0  0  0  0  0  0  0  0  0  0  0  0
   -3.5669    1.7810    0.0000 C   0  0  0  0  0  0  0  0  0  0  0  0
  1  2  1  0
  2  3  1  0
  3  4  2  0
  3  5  1  0
  5  6  1  0
  6  7  2  0
  7  8  1  0
  8  9  2  0
  9 10  1  0
  9 11  1  0
 11 12  1  0
 11 13  2  0
 14  2  1  1
 14 15  1  0
 15 16  1  0
 16 17  1  0
 17 18  1  0
 18 19  1  0
 19 20  1  1
 20 21  1  0
 21 22  1  0
 22 23  1  0
 23 24  1  0
 13  6  1  0
 19 14  1  0
 24 20  1  0
M  END
>  <Compound_Key>  (1233) 
(-)-1S,2R-22

>  <Ki>  (1233) 
250.0

>  <database>  (1233) 
NewLiterature

>  <Document_ChEMBL_ID>  (1233) 
10.1021/acs.jmedchem.0c02265

$$$$

     RDKit          2D

 32 34  0  0  0  0  0  0  0  0999 V2000
  -10.5509    0.6716    0.0000 C   0  0  0  0  0  0  0  0  0  0  0  0
   -9.6300   -0.5124    0.0000 O   0  0  0  0  0  0  0  0  0  0  0  0
   -8.1441   -0.3069    0.0000 C   0  0  0  0  0  0  0  0  0  0  0  0
   -7.5792    1.0827    0.0000 C   0  0  0  0  0  0  0  0  0  0  0  0
   -6.0933    1.2882    0.0000 C   0  0  0  0  0  0  0  0  0  0  0  0
   -5.1724    0.1042    0.0000 C   0  0  0  0  0  0  0  0  0  0  0  0
   -5.7374   -1.2854    0.0000 C   0  0  0  0  0  0  0  0  0  0  0  0
   -7.2232   -1.4909    0.0000 C   0  0  0  0  0  0  0  0  0  0  0  0
   -7.7882   -2.8804    0.0000 O   0  0  0  0  0  0  0  0  0  0  0  0
   -6.8672   -4.0645    0.0000 C   0  0  0  0  0  0  0  0  0  0  0  0
   -3.6866    0.3097    0.0000 C   0  0  0  0  0  0  0  0  0  0  0  0
   -3.1216    1.6992    0.0000 N   0  0  0  0  0  0  0  0  0  0  0  0
   -1.6358    1.9048    0.0000 C   0  0  0  0  0  0  0  0  0  0  0  0
   -0.7149    0.7207    0.0000 C   0  0  0  0  0  0  0  0  0  0  0  0
    0.7710    0.9263    0.0000 C   0  0  0  0  0  0  0  0  0  0  0  0
    1.6919   -0.2578    0.0000 C   0  0  0  0  0  0  0  0  0  0  0  0
    3.1778   -0.0522    0.0000 N   0  0  0  0  0  0  0  0  0  0  0  0
    4.0987   -1.2363    0.0000 C   0  0  0  0  0  0  0  0  0  0  0  0
    3.5337   -2.6258    0.0000 O   0  0  0  0  0  0  0  0  0  0  0  0
    5.5845   -1.0307    0.0000 C   0  0  0  0  0  0  0  0  0  0  0  0
    6.5054   -2.2148    0.0000 C   0  0  0  0  0  0  0  0  0  0  0  0
    7.9913   -2.0092    0.0000 C   0  0  0  0  0  0  0  0  0  0  0  0
    8.9122   -3.1933    0.0000 Br  0  0  0  0  0  0  0  0  0  0  0  0
    8.5562   -0.6197    0.0000 C   0  0  0  0  0  0  0  0  0  0  0  0
    7.6353    0.5643    0.0000 C   0  0  0  0  0  0  0  0  0  0  0  0
    8.2002    1.9539    0.0000 O   0  0  0  0  0  0  0  0  0  0  0  0
    9.6861    2.1594    0.0000 C   0  0  0  0  0  0  0  0  0  0  0  0
    6.1495    0.3588    0.0000 C   0  0  0  0  0  0  0  0  0  0  0  0
    5.2285    1.5428    0.0000 O   0  0  0  0  0  0  0  0  0  0  0  0
    5.7935    2.9324    0.0000 C   0  0  0  0  0  0  0  0  0  0  0  0
   -4.0426    2.8833    0.0000 C   0  0  0  0  0  0  0  0  0  0  0  0
   -5.5284    2.6777    0.0000 C   0  0  0  0  0  0  0  0  0  0  0  0
  1  2  1  0
  2  3  1  0
  3  4  2  0
  4  5  1  0
  5  6  2  0
  6  7  1  0
  7  8  2  0
  8  9  1  0
  9 10  1  0
  6 11  1  0
 11 12  1  0
 12 13  1  0
 13 14  1  0
 14 15  1  0
 15 16  1  0
 16 17  1  0
 17 18  1  0
 18 19  2  0
 18 20  1  0
 20 21  2  0
 21 22  1  0
 22 23  1  0
 22 24  2  0
 24 25  1  0
 25 26  1  0
 26 27  1  0
 25 28  2  0
 28 29  1  0
 29 30  1  0
 12 31  1  0
 31 32  1  0
  8  3  1  0
 28 20  1  0
 32  5  1  0
M  END
>  <ChemBL_ID>  (1234) 
CHEMBL291439

>  <Compound_Key>  (1234) 
14

>  <Ki>  (1234) 
8.2

>  <database>  (1234) 
CHEMBL

>  <Assay_ChEMBL_ID>  (1234) 
CHEMBL808105

>  <Document_ChEMBL_ID>  (1234) 
CHEMBL1146691

$$$$

     RDKit          2D

 21 23  0  0  0  0  0  0  0  0999 V2000
   -7.6839   -1.3087    0.0000 C   0  0  0  0  0  0  0  0  0  0  0  0
   -6.2822   -1.8428    0.0000 O   0  0  0  0  0  0  0  0  0  0  0  0
   -5.1188   -0.8960    0.0000 C   0  0  0  0  0  0  0  0  0  0  0  0
   -5.3571    0.5850    0.0000 C   0  0  0  0  0  0  0  0  0  0  0  0
   -4.1937    1.5318    0.0000 C   0  0  0  0  0  0  0  0  0  0  0  0
   -2.7920    0.9977    0.0000 C   0  0  0  0  0  0  0  0  0  0  0  0
   -1.6286    1.9445    0.0000 C   0  0  0  0  0  0  0  0  0  0  0  0
   -0.2269    1.4104    0.0000 N   0  0  0  0  0  0  0  0  0  0  0  0
    0.0113   -0.0705    0.0000 C   0  0  0  0  0  0  0  0  0  0  0  0
    1.4130   -0.6046    0.0000 C   0  0  0  0  0  0  0  0  0  0  0  0
    2.5764    0.3422    0.0000 N   0  0  0  0  0  0  0  0  0  0  0  0
    3.9781   -0.1919    0.0000 C   0  0  0  0  0  0  0  0  0  0  0  0
    4.2164   -1.6729    0.0000 C   0  0  0  0  0  0  0  0  0  0  0  0
    5.6181   -2.2070    0.0000 C   0  0  0  0  0  0  0  0  0  0  0  0
    6.7815   -1.2601    0.0000 C   0  0  0  0  0  0  0  0  0  0  0  0
    6.5432    0.2208    0.0000 C   0  0  0  0  0  0  0  0  0  0  0  0
    5.1415    0.7549    0.0000 C   0  0  0  0  0  0  0  0  0  0  0  0
    2.3381    1.8232    0.0000 C   0  0  0  0  0  0  0  0  0  0  0  0
    0.9365    2.3573    0.0000 C   0  0  0  0  0  0  0  0  0  0  0  0
   -2.5537   -0.4832    0.0000 C   0  0  0  0  0  0  0  0  0  0  0  0
   -3.7171   -1.4301    0.0000 C   0  0  0  0  0  0  0  0  0  0  0  0
  1  2  1  0
  2  3  1  0
  3  4  2  0
  4  5  1  0
  5  6  2  0
  6  7  1  0
  7  8  1  0
  8  9  1  0
  9 10  1  0
 10 11  1  0
 11 12  1  0
 12 13  2  0
 13 14  1  0
 14 15  2  0
 15 16  1  0
 16 17  2  0
 11 18  1  0
 18 19  1  0
  6 20  1  0
 20 21  2  0
 21  3  1  0
 19  8  1  0
 17 12  1  0
M  END
>  <Compound_Key>  (1235) 
25

>  <Ki>  (1235) 
161.0

>  <database>  (1235) 
NewLiterature

>  <Document_ChEMBL_ID>  (1235) 
10.1021/acs.jmedchem.0c02265

$$$$

     RDKit          2D

 24 26  0  0  0  0  0  0  0  0999 V2000
   -7.6962   -2.0383    0.0000 C   0  0  0  0  0  0  0  0  0  0  0  0
   -6.2355   -2.3793    0.0000 O   0  0  0  0  0  0  0  0  0  0  0  0
   -5.2098   -1.2848    0.0000 C   0  0  0  0  0  0  0  0  0  0  0  0
   -5.6448    0.1507    0.0000 C   0  0  0  0  0  0  0  0  0  0  0  0
   -4.6191    1.2452    0.0000 C   0  0  0  0  0  0  0  0  0  0  0  0
   -3.1584    0.9042    0.0000 C   0  0  0  0  0  0  0  0  0  0  0  0
   -2.1327    1.9987    0.0000 C   0  0  0  0  0  0  0  0  0  0  0  0
   -0.6720    1.6576    0.0000 N   0  0  0  0  0  0  0  0  0  0  0  0
   -0.2370    0.2221    0.0000 C   0  0  0  0  0  0  0  0  0  0  0  0
    1.2238   -0.1190    0.0000 C   0  0  0  0  0  0  0  0  0  0  0  0
    2.2495    0.9755    0.0000 N   0  0  0  0  0  0  0  0  0  0  0  0
    3.7102    0.6345    0.0000 C   0  0  0  0  0  0  0  0  0  0  0  0
    4.1452   -0.8011    0.0000 C   0  0  0  0  0  0  0  0  0  0  0  0
    3.1195   -1.8956    0.0000 C   0  0  0  0  0  0  0  0  0  0  0  0
    3.5545   -3.3311    0.0000 C   0  0  0  0  0  0  0  0  0  0  0  0
    5.0152   -3.6721    0.0000 C   0  0  0  0  0  0  0  0  0  0  0  0
    6.0409   -2.5776    0.0000 C   0  0  0  0  0  0  0  0  0  0  0  0
    5.6059   -1.1421    0.0000 C   0  0  0  0  0  0  0  0  0  0  0  0
    1.8145    2.4111    0.0000 C   0  0  0  0  0  0  0  0  0  0  0  0
    2.8402    3.5056    0.0000 C   0  0  0  0  0  0  0  0  0  0  0  0
    2.4052    4.9411    0.0000 O   0  0  0  0  0  0  0  0  0  0  0  0
    0.3537    2.7521    0.0000 C   0  0  0  0  0  0  0  0  0  0  0  0
   -2.7234   -0.5314    0.0000 C   0  0  0  0  0  0  0  0  0  0  0  0
   -3.7491   -1.6259    0.0000 C   0  0  0  0  0  0  0  0  0  0  0  0
  1  2  1  0
  2  3  1  0
  3  4  2  0
  4  5  1  0
  5  6  2  0
  6  7  1  0
  7  8  1  0
  8  9  1  0
  9 10  1  0
 10 11  1  0
 11 12  1  0
 12 13  1  0
 13 14  2  0
 14 15  1  0
 15 16  2  0
 16 17  1  0
 17 18  2  0
 11 19  1  0
 19 20  1  6
 20 21  1  0
 19 22  1  0
  6 23  1  0
 23 24  2  0
 24  3  1  0
 22  8  1  0
 18 13  1  0
M  END
>  <Compound_Key>  (1236) 
26

>  <Ki>  (1236) 
70.3

>  <database>  (1236) 
NewLiterature

>  <Document_ChEMBL_ID>  (1236) 
10.1021/acs.jmedchem.0c02265

$$$$

     RDKit          2D

 26 29  0  0  0  0  0  0  0  0999 V2000
   -7.6146    2.0652    0.0000 C   0  0  0  0  0  0  0  0  0  0  0  0
   -7.4443    0.5749    0.0000 O   0  0  0  0  0  0  0  0  0  0  0  0
   -6.0686   -0.0228    0.0000 C   0  0  0  0  0  0  0  0  0  0  0  0
   -4.8630    0.8698    0.0000 C   0  0  0  0  0  0  0  0  0  0  0  0
   -3.4873    0.2721    0.0000 C   0  0  0  0  0  0  0  0  0  0  0  0
   -3.3170   -1.2182    0.0000 C   0  0  0  0  0  0  0  0  0  0  0  0
   -1.9413   -1.8160    0.0000 C   0  0  0  0  0  0  0  0  0  0  0  0
   -0.7357   -0.9234    0.0000 N   0  0  0  0  0  0  0  0  0  0  0  0
    0.5502   -1.6955    0.0000 C   0  0  0  0  0  0  0  0  0  0  0  0
    2.0056   -1.3322    0.0000 C   0  0  0  0  0  0  0  0  0  0  0  0
    2.7777   -0.0462    0.0000 C   0  0  0  0  0  0  0  0  0  0  0  0
    2.4144    1.4091    0.0000 C   0  0  0  0  0  0  0  0  0  0  0  0
    1.1284    2.1813    0.0000 C   0  0  0  0  0  0  0  0  0  0  0  0
   -0.3269    1.8180    0.0000 C   0  0  0  0  0  0  0  0  0  0  0  0
   -1.0991    0.5320    0.0000 C   0  0  0  0  0  0  0  0  0  0  0  0
    0.3563    0.8953    0.0000 C   0  0  0  0  0  0  0  0  0  0  0  0
    1.6423    0.1231    0.0000 N   0  0  0  0  0  0  0  0  0  0  0  0
    2.8478    1.0157    0.0000 C   0  0  0  0  0  0  0  0  0  0  0  0
    4.2235    0.4180    0.0000 C   0  0  0  0  0  0  0  0  0  0  0  0
    4.3938   -1.0723    0.0000 C   0  0  0  0  0  0  0  0  0  0  0  0
    5.7696   -1.6700    0.0000 C   0  0  0  0  0  0  0  0  0  0  0  0
    6.9751   -0.7774    0.0000 C   0  0  0  0  0  0  0  0  0  0  0  0
    6.8048    0.7129    0.0000 C   0  0  0  0  0  0  0  0  0  0  0  0
    5.4291    1.3106    0.0000 C   0  0  0  0  0  0  0  0  0  0  0  0
   -4.5225   -2.1108    0.0000 C   0  0  0  0  0  0  0  0  0  0  0  0
   -5.8983   -1.5131    0.0000 C   0  0  0  0  0  0  0  0  0  0  0  0
  1  2  1  0
  2  3  1  0
  3  4  2  0
  4  5  1  0
  5  6  2  0
  6  7  1  0
  7  8  1  0
  8  9  1  0
  9 10  1  0
 10 11  1  0
 11 12  1  0
 12 13  1  0
 13 14  1  0
 14 15  1  0
 15 16  1  0
 16 17  1  0
 17 18  1  0
 18 19  1  0
 19 20  2  0
 20 21  1  0
 21 22  2  0
 22 23  1  0
 23 24  2  0
  6 25  1  0
 25 26  2  0
 26  3  1  0
 15  8  1  0
 24 19  1  0
 17 10  1  0
M  END
>  <Compound_Key>  (1237) 
35

>  <Ki>  (1237) 
674.0

>  <database>  (1237) 
NewLiterature

>  <Document_ChEMBL_ID>  (1237) 
10.1021/acs.jmedchem.0c02265

$$$$

     RDKit          2D

 26 29  0  0  0  0  0  0  0  0999 V2000
   -7.6146    2.0652    0.0000 C   0  0  0  0  0  0  0  0  0  0  0  0
   -7.4443    0.5749    0.0000 O   0  0  0  0  0  0  0  0  0  0  0  0
   -6.0686   -0.0228    0.0000 C   0  0  0  0  0  0  0  0  0  0  0  0
   -4.8630    0.8698    0.0000 C   0  0  0  0  0  0  0  0  0  0  0  0
   -3.4873    0.2721    0.0000 C   0  0  0  0  0  0  0  0  0  0  0  0
   -3.3170   -1.2182    0.0000 C   0  0  0  0  0  0  0  0  0  0  0  0
   -1.9413   -1.8160    0.0000 C   0  0  0  0  0  0  0  0  0  0  0  0
   -0.7357   -0.9234    0.0000 N   0  0  0  0  0  0  0  0  0  0  0  0
    0.5502   -1.6955    0.0000 C   0  0  0  0  0  0  0  0  0  0  0  0
    2.0056   -1.3322    0.0000 C   0  0  0  0  0  0  0  0  0  0  0  0
    2.7777   -0.0462    0.0000 C   0  0  0  0  0  0  0  0  0  0  0  0
    2.4144    1.4091    0.0000 C   0  0  0  0  0  0  0  0  0  0  0  0
    1.1284    2.1813    0.0000 C   0  0  0  0  0  0  0  0  0  0  0  0
   -0.3269    1.8180    0.0000 C   0  0  0  0  0  0  0  0  0  0  0  0
   -1.0991    0.5320    0.0000 C   0  0  0  0  0  0  0  0  0  0  0  0
    0.3563    0.8953    0.0000 C   0  0  0  0  0  0  0  0  0  0  0  0
    1.6423    0.1231    0.0000 N   0  0  0  0  0  0  0  0  0  0  0  0
    2.8478    1.0157    0.0000 C   0  0  0  0  0  0  0  0  0  0  0  0
    4.2235    0.4180    0.0000 C   0  0  0  0  0  0  0  0  0  0  0  0
    4.3938   -1.0723    0.0000 C   0  0  0  0  0  0  0  0  0  0  0  0
    5.7696   -1.6700    0.0000 C   0  0  0  0  0  0  0  0  0  0  0  0
    6.9751   -0.7774    0.0000 C   0  0  0  0  0  0  0  0  0  0  0  0
    6.8048    0.7129    0.0000 C   0  0  0  0  0  0  0  0  0  0  0  0
    5.4291    1.3106    0.0000 C   0  0  0  0  0  0  0  0  0  0  0  0
   -4.5225   -2.1108    0.0000 C   0  0  0  0  0  0  0  0  0  0  0  0
   -5.8983   -1.5131    0.0000 C   0  0  0  0  0  0  0  0  0  0  0  0
  1  2  1  0
  2  3  1  0
  3  4  2  0
  4  5  1  0
  5  6  2  0
  6  7  1  0
  7  8  1  0
  8  9  1  0
  9 10  1  0
 10 11  1  0
 11 12  1  0
 12 13  1  0
 13 14  2  0
 14 15  1  0
 15 16  1  0
 16 17  1  0
 17 18  1  0
 18 19  1  0
 19 20  2  0
 20 21  1  0
 21 22  2  0
 22 23  1  0
 23 24  2  0
  6 25  1  0
 25 26  2  0
 26  3  1  0
 15  8  1  0
 24 19  1  0
 17 10  1  0
M  END
>  <Compound_Key>  (1238) 
36

>  <Ki>  (1238) 
184.0

>  <database>  (1238) 
NewLiterature

>  <Document_ChEMBL_ID>  (1238) 
10.1021/acs.jmedchem.0c02265

$$$$

     RDKit          2D

 27 30  0  0  0  0  0  0  0  0999 V2000
   -7.5852    1.8912    0.0000 C   0  0  0  0  0  0  0  0  0  0  0  0
   -7.4027    0.4023    0.0000 O   0  0  0  0  0  0  0  0  0  0  0  0
   -6.0221   -0.1841    0.0000 C   0  0  0  0  0  0  0  0  0  0  0  0
   -4.8239    0.7183    0.0000 C   0  0  0  0  0  0  0  0  0  0  0  0
   -3.4433    0.1319    0.0000 C   0  0  0  0  0  0  0  0  0  0  0  0
   -3.2609   -1.3569    0.0000 C   0  0  0  0  0  0  0  0  0  0  0  0
   -1.8803   -1.9434    0.0000 C   0  0  0  0  0  0  0  0  0  0  0  0
   -0.6821   -1.0410    0.0000 N   0  0  0  0  0  0  0  0  0  0  0  0
    0.6102   -1.8026    0.0000 C   0  0  0  0  0  0  0  0  0  0  0  0
    2.0625   -1.4274    0.0000 C   0  0  0  0  0  0  0  0  0  0  0  0
    2.8241   -0.1351    0.0000 C   0  0  0  0  0  0  0  0  0  0  0  0
    2.4489    1.3172    0.0000 C   0  0  0  0  0  0  0  0  0  0  0  0
    1.1566    2.0788    0.0000 C   0  0  0  0  0  0  0  0  0  0  0  0
   -0.2957    1.7036    0.0000 C   0  0  0  0  0  0  0  0  0  0  0  0
   -1.1981    2.9018    0.0000 F   0  0  0  0  0  0  0  0  0  0  0  0
   -1.0573    0.4114    0.0000 C   0  0  0  0  0  0  0  0  0  0  0  0
    0.3950    0.7866    0.0000 C   0  0  0  0  0  0  0  0  0  0  0  0
    1.6873    0.0250    0.0000 N   0  0  0  0  0  0  0  0  0  0  0  0
    2.8854    0.9274    0.0000 C   0  0  0  0  0  0  0  0  0  0  0  0
    4.2661    0.3410    0.0000 C   0  0  0  0  0  0  0  0  0  0  0  0
    4.4485   -1.1479    0.0000 C   0  0  0  0  0  0  0  0  0  0  0  0
    5.8291   -1.7343    0.0000 C   0  0  0  0  0  0  0  0  0  0  0  0
    7.0273   -0.8319    0.0000 C   0  0  0  0  0  0  0  0  0  0  0  0
    6.8449    0.6570    0.0000 C   0  0  0  0  0  0  0  0  0  0  0  0
    5.4642    1.2434    0.0000 C   0  0  0  0  0  0  0  0  0  0  0  0
   -4.4590   -2.2594    0.0000 C   0  0  0  0  0  0  0  0  0  0  0  0
   -5.8397   -1.6729    0.0000 C   0  0  0  0  0  0  0  0  0  0  0  0
  1  2  1  0
  2  3  1  0
  3  4  2  0
  4  5  1  0
  5  6  2  0
  6  7  1  0
  7  8  1  0
  8  9  1  0
  9 10  1  0
 10 11  1  0
 11 12  1  0
 12 13  1  0
 13 14  2  0
 14 15  1  0
 14 16  1  0
 16 17  1  0
 17 18  1  0
 18 19  1  0
 19 20  1  0
 20 21  2  0
 21 22  1  0
 22 23  2  0
 23 24  1  0
 24 25  2  0
  6 26  1  0
 26 27  2  0
 27  3  1  0
 16  8  1  0
 25 20  1  0
 18 10  1  0
M  END
>  <Compound_Key>  (1239) 
37

>  <Ki>  (1239) 
387.0

>  <database>  (1239) 
NewLiterature

>  <Document_ChEMBL_ID>  (1239) 
10.1021/acs.jmedchem.0c02265

$$$$

     RDKit          2D

 27 30  0  0  0  0  0  0  0  0999 V2000
   -7.5852    1.8912    0.0000 C   0  0  0  0  0  0  0  0  0  0  0  0
   -7.4027    0.4023    0.0000 O   0  0  0  0  0  0  0  0  0  0  0  0
   -6.0221   -0.1841    0.0000 C   0  0  0  0  0  0  0  0  0  0  0  0
   -4.8239    0.7183    0.0000 C   0  0  0  0  0  0  0  0  0  0  0  0
   -3.4433    0.1319    0.0000 C   0  0  0  0  0  0  0  0  0  0  0  0
   -3.2609   -1.3569    0.0000 C   0  0  0  0  0  0  0  0  0  0  0  0
   -1.8803   -1.9434    0.0000 C   0  0  0  0  0  0  0  0  0  0  0  0
   -0.6821   -1.0410    0.0000 N   0  0  0  0  0  0  0  0  0  0  0  0
    0.6102   -1.8026    0.0000 C   0  0  0  0  0  0  0  0  0  0  0  0
    2.0625   -1.4274    0.0000 C   0  0  0  0  0  0  0  0  0  0  0  0
    2.8241   -0.1351    0.0000 C   0  0  0  0  0  0  0  0  0  0  0  0
    2.4489    1.3172    0.0000 C   0  0  0  0  0  0  0  0  0  0  0  0
    1.1566    2.0788    0.0000 C   0  0  0  0  0  0  0  0  0  0  0  0
   -0.2957    1.7036    0.0000 C   0  0  0  0  0  0  0  0  0  0  0  0
   -1.1981    2.9018    0.0000 O   0  0  0  0  0  0  0  0  0  0  0  0
   -1.0573    0.4114    0.0000 C   0  0  0  0  0  0  0  0  0  0  0  0
    0.3950    0.7866    0.0000 C   0  0  0  0  0  0  0  0  0  0  0  0
    1.6873    0.0250    0.0000 N   0  0  0  0  0  0  0  0  0  0  0  0
    2.8854    0.9274    0.0000 C   0  0  0  0  0  0  0  0  0  0  0  0
    4.2661    0.3410    0.0000 C   0  0  0  0  0  0  0  0  0  0  0  0
    4.4485   -1.1479    0.0000 C   0  0  0  0  0  0  0  0  0  0  0  0
    5.8291   -1.7343    0.0000 C   0  0  0  0  0  0  0  0  0  0  0  0
    7.0273   -0.8319    0.0000 C   0  0  0  0  0  0  0  0  0  0  0  0
    6.8449    0.6570    0.0000 C   0  0  0  0  0  0  0  0  0  0  0  0
    5.4642    1.2434    0.0000 C   0  0  0  0  0  0  0  0  0  0  0  0
   -4.4590   -2.2594    0.0000 C   0  0  0  0  0  0  0  0  0  0  0  0
   -5.8397   -1.6729    0.0000 C   0  0  0  0  0  0  0  0  0  0  0  0
  1  2  1  0
  2  3  1  0
  3  4  2  0
  4  5  1  0
  5  6  2  0
  6  7  1  0
  7  8  1  0
  8  9  1  0
  9 10  1  0
 10 11  1  0
 11 12  1  0
 12 13  1  0
 13 14  2  0
 14 15  1  0
 14 16  1  0
 16 17  1  0
 17 18  1  0
 18 19  1  0
 19 20  1  0
 20 21  2  0
 21 22  1  0
 22 23  2  0
 23 24  1  0
 24 25  2  0
  6 26  1  0
 26 27  2  0
 27  3  1  0
 16  8  1  0
 25 20  1  0
 18 10  1  0
M  END
>  <Compound_Key>  (1240) 
31

>  <Ki>  (1240) 
4800.0

>  <database>  (1240) 
NewLiterature

>  <Document_ChEMBL_ID>  (1240) 
10.1021/acs.jmedchem.0c02265

$$$$

     RDKit          2D

 26 29  0  0  0  0  0  0  0  0999 V2000
    5.6404   -3.8276    0.0000 C   0  0  0  0  0  0  0  0  0  0  0  0
    6.1260   -2.4084    0.0000 O   0  0  0  0  0  0  0  0  0  0  0  0
    5.1397   -1.2782    0.0000 C   0  0  0  0  0  0  0  0  0  0  0  0
    3.6678   -1.5673    0.0000 C   0  0  0  0  0  0  0  0  0  0  0  0
    2.6815   -0.4371    0.0000 C   0  0  0  0  0  0  0  0  0  0  0  0
    3.1671    0.9821    0.0000 C   0  0  0  0  0  0  0  0  0  0  0  0
    2.1808    2.1123    0.0000 C   0  0  0  0  0  0  0  0  0  0  0  0
    0.7090    1.8232    0.0000 N   0  0  0  0  0  0  0  0  0  0  0  0
    0.3308    0.3717    0.0000 C   0  0  0  0  0  0  0  0  0  0  0  0
   -1.0399   -0.2377    0.0000 C   0  0  0  0  0  0  0  0  0  0  0  0
   -1.1591    0.6174    0.0000 C   0  0  0  0  0  0  0  0  0  0  0  0
   -1.3052    1.5729    0.0000 C   0  0  0  0  0  0  0  0  0  0  0  0
   -0.7114    2.3357    0.0000 C   0  0  0  0  0  0  0  0  0  0  0  0
   -2.2988    4.4403    0.0000 O   0  0  0  0  0  0  0  0  0  0  0  0
   -0.1901    3.0239    0.0000 C   0  0  0  0  0  0  0  0  0  0  0  0
   -1.5608    2.4146    0.0000 C   0  0  0  0  0  0  0  0  0  0  0  0
   -1.9390    0.9630    0.0000 N   0  0  0  0  0  0  0  0  0  0  0  0
   -3.4108    0.6740    0.0000 C   0  0  0  0  0  0  0  0  0  0  0  0
   -3.8964   -0.7453    0.0000 C   0  0  0  0  0  0  0  0  0  0  0  0
   -5.3683   -1.0343    0.0000 C   0  0  0  0  0  0  0  0  0  0  0  0
   -5.8539   -2.4536    0.0000 C   0  0  0  0  0  0  0  0  0  0  0  0
   -4.8676   -3.5837    0.0000 C   0  0  0  0  0  0  0  0  0  0  0  0
   -3.3958   -3.2946    0.0000 C   0  0  0  0  0  0  0  0  0  0  0  0
   -2.9102   -1.8754    0.0000 C   0  0  0  0  0  0  0  0  0  0  0  0
    4.6390    1.2712    0.0000 C   0  0  0  0  0  0  0  0  0  0  0  0
    5.6253    0.1410    0.0000 C   0  0  0  0  0  0  0  0  0  0  0  0
  1  2  1  0
  2  3  1  0
  3  4  2  0
  4  5  1  0
  5  6  2  0
  6  7  1  0
  7  8  1  0
  8  9  1  0
  9 10  1  0
 10 11  1  0
 11 12  1  0
 12 13  1  0
 13 14  1  6
 13 15  1  0
 15 16  1  0
 16 17  1  0
 17 18  1  0
 18 19  1  0
 19 20  2  0
 20 21  1  0
 21 22  2  0
 22 23  1  0
 23 24  2  0
  6 25  1  0
 25 26  2  0
 26  3  1  0
 15  8  1  0
 24 19  1  0
 17 10  1  0
M  END
>  <Compound_Key>  (1241) 
29(1R,2R,5S)

>  <Ki>  (1241) 
806.0

>  <database>  (1241) 
NewLiterature

>  <Document_ChEMBL_ID>  (1241) 
10.1021/acs.jmedchem.0c02265

$$$$

     RDKit          2D

 26 29  0  0  0  0  0  0  0  0999 V2000
    5.6404   -3.8276    0.0000 C   0  0  0  0  0  0  0  0  0  0  0  0
    6.1260   -2.4084    0.0000 O   0  0  0  0  0  0  0  0  0  0  0  0
    5.1397   -1.2782    0.0000 C   0  0  0  0  0  0  0  0  0  0  0  0
    3.6678   -1.5673    0.0000 C   0  0  0  0  0  0  0  0  0  0  0  0
    2.6815   -0.4371    0.0000 C   0  0  0  0  0  0  0  0  0  0  0  0
    3.1671    0.9821    0.0000 C   0  0  0  0  0  0  0  0  0  0  0  0
    2.1808    2.1123    0.0000 C   0  0  0  0  0  0  0  0  0  0  0  0
    0.7090    1.8232    0.0000 N   0  0  0  0  0  0  0  0  0  0  0  0
    0.3308    0.3717    0.0000 C   0  0  0  0  0  0  0  0  0  0  0  0
   -1.0399   -0.2377    0.0000 C   0  0  0  0  0  0  0  0  0  0  0  0
   -1.1591    0.6174    0.0000 C   0  0  0  0  0  0  0  0  0  0  0  0
   -1.3052    1.5729    0.0000 C   0  0  0  0  0  0  0  0  0  0  0  0
   -0.7114    2.3357    0.0000 C   0  0  0  0  0  0  0  0  0  0  0  0
   -2.2988    4.4403    0.0000 O   0  0  0  0  0  0  0  0  0  0  0  0
   -0.1901    3.0239    0.0000 C   0  0  0  0  0  0  0  0  0  0  0  0
   -1.5608    2.4146    0.0000 C   0  0  0  0  0  0  0  0  0  0  0  0
   -1.9390    0.9630    0.0000 N   0  0  0  0  0  0  0  0  0  0  0  0
   -3.4108    0.6740    0.0000 C   0  0  0  0  0  0  0  0  0  0  0  0
   -3.8964   -0.7453    0.0000 C   0  0  0  0  0  0  0  0  0  0  0  0
   -5.3683   -1.0343    0.0000 C   0  0  0  0  0  0  0  0  0  0  0  0
   -5.8539   -2.4536    0.0000 C   0  0  0  0  0  0  0  0  0  0  0  0
   -4.8676   -3.5837    0.0000 C   0  0  0  0  0  0  0  0  0  0  0  0
   -3.3958   -3.2946    0.0000 C   0  0  0  0  0  0  0  0  0  0  0  0
   -2.9102   -1.8754    0.0000 C   0  0  0  0  0  0  0  0  0  0  0  0
    4.6390    1.2712    0.0000 C   0  0  0  0  0  0  0  0  0  0  0  0
    5.6253    0.1410    0.0000 C   0  0  0  0  0  0  0  0  0  0  0  0
  1  2  1  0
  2  3  1  0
  3  4  2  0
  4  5  1  0
  5  6  2  0
  6  7  1  0
  7  8  1  0
  8  9  1  0
  9 10  1  0
 10 11  1  0
 11 12  1  0
 12 13  1  0
 13 14  1  1
 13 15  1  0
 15 16  1  0
 16 17  1  0
 17 18  1  0
 18 19  1  0
 19 20  2  0
 20 21  1  0
 21 22  2  0
 22 23  1  0
 23 24  2  0
  6 25  1  0
 25 26  2  0
 26  3  1  0
 15  8  1  0
 24 19  1  0
 17 10  1  0
M  END
>  <Compound_Key>  (1242) 
30(1S,2S,5R)

>  <Ki>  (1242) 
1700.0

>  <database>  (1242) 
NewLiterature

>  <Document_ChEMBL_ID>  (1242) 
10.1021/acs.jmedchem.0c02265

$$$$

     RDKit          2D

 34 38  0  0  0  0  0  0  0  0999 V2000
  -10.7141    1.4773    0.0000 C   0  0  0  0  0  0  0  0  0  0  0  0
   -9.9449    0.1895    0.0000 O   0  0  0  0  0  0  0  0  0  0  0  0
   -8.4450    0.2118    0.0000 C   0  0  0  0  0  0  0  0  0  0  0  0
   -7.7144    1.5219    0.0000 C   0  0  0  0  0  0  0  0  0  0  0  0
   -6.2146    1.5442    0.0000 C   0  0  0  0  0  0  0  0  0  0  0  0
   -5.4454    0.2564    0.0000 C   0  0  0  0  0  0  0  0  0  0  0  0
   -6.1760   -1.0536    0.0000 C   0  0  0  0  0  0  0  0  0  0  0  0
   -7.6758   -1.0759    0.0000 C   0  0  0  0  0  0  0  0  0  0  0  0
   -8.4064   -2.3860    0.0000 O   0  0  0  0  0  0  0  0  0  0  0  0
   -7.6372   -3.6737    0.0000 C   0  0  0  0  0  0  0  0  0  0  0  0
   -3.9455    0.2787    0.0000 C   0  0  0  0  0  0  0  0  0  0  0  0
   -3.2149    1.5887    0.0000 N   0  0  0  0  0  0  0  0  0  0  0  0
   -1.7151    1.6110    0.0000 C   0  0  0  0  0  0  0  0  0  0  0  0
   -0.9459    0.3233    0.0000 C   0  0  0  0  0  0  0  0  0  0  0  0
    0.5540    0.3456    0.0000 C   0  0  0  0  0  0  0  0  0  0  0  0
    1.3232   -0.9422    0.0000 C   0  0  0  0  0  0  0  0  0  0  0  0
    2.8230   -0.9199    0.0000 C   0  0  0  0  0  0  0  0  0  0  0  0
    3.6866    0.3066    0.0000 C   0  0  0  0  0  0  0  0  0  0  0  0
    5.1199   -0.1357    0.0000 N   0  0  0  0  0  0  0  0  0  0  0  0
    6.3202    0.7640    0.0000 C   0  0  0  0  0  0  0  0  0  0  0  0
    7.6994    0.1743    0.0000 C   0  0  0  0  0  0  0  0  0  0  0  0
    8.8997    1.0739    0.0000 C   0  0  0  0  0  0  0  0  0  0  0  0
    8.7208    2.5632    0.0000 C   0  0  0  0  0  0  0  0  0  0  0  0
    9.9210    3.4628    0.0000 F   0  0  0  0  0  0  0  0  0  0  0  0
    7.3415    3.1529    0.0000 C   0  0  0  0  0  0  0  0  0  0  0  0
    6.1412    2.2532    0.0000 C   0  0  0  0  0  0  0  0  0  0  0  0
    5.1422   -1.6355    0.0000 C   0  0  0  0  0  0  0  0  0  0  0  0
    6.2717   -2.6225    0.0000 C   0  0  0  0  0  0  0  0  0  0  0  0
    5.9817   -4.0942    0.0000 C   0  0  0  0  0  0  0  0  0  0  0  0
    4.5621   -4.5789    0.0000 C   0  0  0  0  0  0  0  0  0  0  0  0
    3.4326   -3.5919    0.0000 C   0  0  0  0  0  0  0  0  0  0  0  0
    3.7226   -2.1202    0.0000 C   0  0  0  0  0  0  0  0  0  0  0  0
   -3.9841    2.8765    0.0000 C   0  0  0  0  0  0  0  0  0  0  0  0
   -5.4840    2.8542    0.0000 C   0  0  0  0  0  0  0  0  0  0  0  0
  1  2  1  0
  2  3  1  0
  3  4  2  0
  4  5  1  0
  5  6  2  0
  6  7  1  0
  7  8  2  0
  8  9  1  0
  9 10  1  0
  6 11  1  0
 11 12  1  0
 12 13  1  0
 13 14  1  0
 14 15  1  0
 15 16  1  0
 16 17  1  0
 17 18  2  0
 18 19  1  0
 19 20  1  0
 20 21  2  0
 21 22  1  0
 22 23  2  0
 23 24  1  0
 23 25  1  0
 25 26  2  0
 19 27  1  0
 27 28  2  0
 28 29  1  0
 29 30  2  0
 30 31  1  0
 31 32  2  0
 12 33  1  0
 33 34  1  0
  8  3  1  0
 32 17  1  0
 34  5  1  0
 26 20  1  0
 32 27  1  0
M  END
>  <Ki>  (1243) 
5.34

>  <database>  (1243) 
SRSLDB

$$$$

     RDKit          2D

 33 37  0  0  0  0  0  0  0  0999 V2000
   10.7620    1.1166    0.0000 C   0  0  0  0  0  0  0  0  0  0  0  0
    9.3732    1.6831    0.0000 O   0  0  0  0  0  0  0  0  0  0  0  0
    8.1881    0.7636    0.0000 C   0  0  0  0  0  0  0  0  0  0  0  0
    6.7992    1.3301    0.0000 C   0  0  0  0  0  0  0  0  0  0  0  0
    5.6141    0.4106    0.0000 C   0  0  0  0  0  0  0  0  0  0  0  0
    5.8179   -1.0755    0.0000 C   0  0  0  0  0  0  0  0  0  0  0  0
    7.2068   -1.6421    0.0000 C   0  0  0  0  0  0  0  0  0  0  0  0
    8.3919   -0.7225    0.0000 C   0  0  0  0  0  0  0  0  0  0  0  0
    9.7808   -1.2891    0.0000 O   0  0  0  0  0  0  0  0  0  0  0  0
    9.9846   -2.7752    0.0000 C   0  0  0  0  0  0  0  0  0  0  0  0
    4.4675   -1.7286    0.0000 C   0  0  0  0  0  0  0  0  0  0  0  0
    3.4291   -0.6461    0.0000 N   0  0  0  0  0  0  0  0  0  0  0  0
    1.9430   -0.8499    0.0000 C   0  0  0  0  0  0  0  0  0  0  0  0
    1.0235    0.3352    0.0000 C   0  0  0  0  0  0  0  0  0  0  0  0
   -0.4626    0.1314    0.0000 C   0  0  0  0  0  0  0  0  0  0  0  0
   -1.3821    1.3165    0.0000 C   0  0  0  0  0  0  0  0  0  0  0  0
   -2.8682    1.1127    0.0000 C   0  0  0  0  0  0  0  0  0  0  0  0
   -3.5769   -0.2094    0.0000 C   0  0  0  0  0  0  0  0  0  0  0  0
   -5.0532    0.0560    0.0000 N   0  0  0  0  0  0  0  0  0  0  0  0
   -6.1357   -0.9824    0.0000 C   0  0  0  0  0  0  0  0  0  0  0  0
   -7.5762   -0.5641    0.0000 C   0  0  0  0  0  0  0  0  0  0  0  0
   -8.6587   -1.6025    0.0000 C   0  0  0  0  0  0  0  0  0  0  0  0
   -8.3006   -3.0591    0.0000 C   0  0  0  0  0  0  0  0  0  0  0  0
   -9.3831   -4.0975    0.0000 F   0  0  0  0  0  0  0  0  0  0  0  0
   -6.8601   -3.4774    0.0000 C   0  0  0  0  0  0  0  0  0  0  0  0
   -5.7776   -2.4390    0.0000 C   0  0  0  0  0  0  0  0  0  0  0  0
   -5.2570    1.5421    0.0000 C   0  0  0  0  0  0  0  0  0  0  0  0
   -6.4977    2.3850    0.0000 C   0  0  0  0  0  0  0  0  0  0  0  0
   -6.3881    3.8810    0.0000 C   0  0  0  0  0  0  0  0  0  0  0  0
   -5.0377    4.5341    0.0000 C   0  0  0  0  0  0  0  0  0  0  0  0
   -3.7970    3.6912    0.0000 C   0  0  0  0  0  0  0  0  0  0  0  0
   -3.9066    2.1952    0.0000 C   0  0  0  0  0  0  0  0  0  0  0  0
    4.1377    0.6760    0.0000 C   0  0  0  0  0  0  0  0  0  0  0  0
  1  2  1  0
  2  3  1  0
  3  4  2  0
  4  5  1  0
  5  6  2  0
  6  7  1  0
  7  8  2  0
  8  9  1  0
  9 10  1  0
  6 11  1  0
 11 12  1  0
 12 13  1  0
 13 14  1  0
 14 15  1  0
 15 16  1  0
 16 17  1  0
 17 18  2  0
 18 19  1  0
 19 20  1  0
 20 21  2  0
 21 22  1  0
 22 23  2  0
 23 24  1  0
 23 25  1  0
 25 26  2  0
 19 27  1  0
 27 28  2  0
 28 29  1  0
 29 30  2  0
 30 31  1  0
 31 32  2  0
 12 33  1  0
  8  3  1  0
 32 17  1  0
 33  5  1  0
 26 20  1  0
 32 27  1  0
M  END
>  <Ki>  (1244) 
53.8

>  <database>  (1244) 
SRSLDB

$$$$

     RDKit          2D

 27 31  0  0  0  0  0  0  0  0999 V2000
   -3.4441   -3.8551    0.0000 O   0  0  0  0  0  0  0  0  0  0  0  0
   -2.3351   -2.8451    0.0000 C   0  0  0  0  0  0  0  0  0  0  0  0
   -0.9059   -3.3005    0.0000 C   0  0  0  0  0  0  0  0  0  0  0  0
    0.2031   -2.2905    0.0000 C   0  0  0  0  0  0  0  0  0  0  0  0
   -0.5647   -1.9929    0.0000 C   0  0  0  0  0  0  0  0  0  0  0  0
   -1.8569   -1.5811    0.0000 N   0  0  0  0  0  0  0  0  0  0  0  0
   -1.8665    1.0958    0.0000 C   0  0  0  0  0  0  0  0  0  0  0  0
   -3.2957    1.5512    0.0000 C   0  0  0  0  0  0  0  0  0  0  0  0
   -3.6159    3.0166    0.0000 C   0  0  0  0  0  0  0  0  0  0  0  0
   -5.0451    3.4721    0.0000 C   0  0  0  0  0  0  0  0  0  0  0  0
   -6.1541    2.4621    0.0000 C   0  0  0  0  0  0  0  0  0  0  0  0
   -5.8339    0.9966    0.0000 C   0  0  0  0  0  0  0  0  0  0  0  0
   -4.4047    0.5412    0.0000 C   0  0  0  0  0  0  0  0  0  0  0  0
   -2.6553   -1.3796    0.0000 C   0  0  0  0  0  0  0  0  0  0  0  0
   -1.5463   -0.3696    0.0000 C   0  0  0  0  0  0  0  0  0  0  0  0
   -0.1171   -0.8250    0.0000 N   0  0  0  0  0  0  0  0  0  0  0  0
    0.9919    0.1850    0.0000 C   0  0  0  0  0  0  0  0  0  0  0  0
    2.4211   -0.2704    0.0000 C   0  0  0  0  0  0  0  0  0  0  0  0
    2.7413   -1.7359    0.0000 C   0  0  0  0  0  0  0  0  0  0  0  0
    4.1705   -2.1913    0.0000 C   0  0  0  0  0  0  0  0  0  0  0  0
    5.2795   -1.1813    0.0000 C   0  0  0  0  0  0  0  0  0  0  0  0
    4.9593    0.2842    0.0000 C   0  0  0  0  0  0  0  0  0  0  0  0
    6.0683    1.2942    0.0000 C   0  0  0  0  0  0  0  0  0  0  0  0
    5.7481    2.7596    0.0000 C   0  0  0  0  0  0  0  0  0  0  0  0
    4.3189    3.2150    0.0000 C   0  0  0  0  0  0  0  0  0  0  0  0
    3.2099    2.2050    0.0000 C   0  0  0  0  0  0  0  0  0  0  0  0
    3.5301    0.7396    0.0000 C   0  0  0  0  0  0  0  0  0  0  0  0
  2  1  1  1
  2  3  1  0
  4  3  1  1
  4  5  1  0
  5  6  1  0
  6  7  1  0
  7  8  1  0
  8  9  1  0
  9 10  1  0
 10 11  1  0
 11 12  1  0
 12 13  1  0
  6 14  1  0
 14 15  1  1
 15 16  1  0
 16 17  1  0
 17 18  1  0
 18 19  2  0
 19 20  1  0
 20 21  2  0
 21 22  1  0
 22 23  2  0
 23 24  1  0
 24 25  2  0
 25 26  1  0
 26 27  2  0
 14  2  1  0
 27 18  1  0
 16  4  1  0
 27 22  1  0
 13  8  1  0
M  END
>  <Compound_Key>  (1245) 
40

>  <Ki>  (1245) 
51.0

>  <database>  (1245) 
NewLiterature

>  <Document_ChEMBL_ID>  (1245) 
10.1021/acs.jmedchem.0c02265

$$$$

     RDKit          2D

 27 31  0  0  0  0  0  0  0  0999 V2000
   -3.4441   -3.8551    0.0000 O   0  0  0  0  0  0  0  0  0  0  0  0
   -2.3351   -2.8451    0.0000 C   0  0  0  0  0  0  0  0  0  0  0  0
   -0.9059   -3.3005    0.0000 C   0  0  0  0  0  0  0  0  0  0  0  0
    0.2031   -2.2905    0.0000 C   0  0  0  0  0  0  0  0  0  0  0  0
   -0.5647   -1.9929    0.0000 C   0  0  0  0  0  0  0  0  0  0  0  0
   -1.8569   -1.5811    0.0000 N   0  0  0  0  0  0  0  0  0  0  0  0
   -1.8665    1.0958    0.0000 C   0  0  0  0  0  0  0  0  0  0  0  0
   -3.2957    1.5512    0.0000 C   0  0  0  0  0  0  0  0  0  0  0  0
   -3.6159    3.0166    0.0000 C   0  0  0  0  0  0  0  0  0  0  0  0
   -5.0451    3.4721    0.0000 C   0  0  0  0  0  0  0  0  0  0  0  0
   -6.1541    2.4621    0.0000 C   0  0  0  0  0  0  0  0  0  0  0  0
   -5.8339    0.9966    0.0000 C   0  0  0  0  0  0  0  0  0  0  0  0
   -4.4047    0.5412    0.0000 C   0  0  0  0  0  0  0  0  0  0  0  0
   -2.6553   -1.3796    0.0000 C   0  0  0  0  0  0  0  0  0  0  0  0
   -1.5463   -0.3696    0.0000 C   0  0  0  0  0  0  0  0  0  0  0  0
   -0.1171   -0.8250    0.0000 N   0  0  0  0  0  0  0  0  0  0  0  0
    0.9919    0.1850    0.0000 C   0  0  0  0  0  0  0  0  0  0  0  0
    2.4211   -0.2704    0.0000 C   0  0  0  0  0  0  0  0  0  0  0  0
    2.7413   -1.7359    0.0000 C   0  0  0  0  0  0  0  0  0  0  0  0
    4.1705   -2.1913    0.0000 C   0  0  0  0  0  0  0  0  0  0  0  0
    5.2795   -1.1813    0.0000 C   0  0  0  0  0  0  0  0  0  0  0  0
    4.9593    0.2842    0.0000 C   0  0  0  0  0  0  0  0  0  0  0  0
    6.0683    1.2942    0.0000 C   0  0  0  0  0  0  0  0  0  0  0  0
    5.7481    2.7596    0.0000 C   0  0  0  0  0  0  0  0  0  0  0  0
    4.3189    3.2150    0.0000 C   0  0  0  0  0  0  0  0  0  0  0  0
    3.2099    2.2050    0.0000 C   0  0  0  0  0  0  0  0  0  0  0  0
    3.5301    0.7396    0.0000 C   0  0  0  0  0  0  0  0  0  0  0  0
  2  1  1  6
  2  3  1  0
  4  3  1  6
  4  5  1  0
  5  6  1  0
  6  7  1  0
  7  8  1  0
  8  9  1  0
  9 10  1  0
 10 11  1  0
 11 12  1  0
 12 13  1  0
  6 14  1  0
 14 15  1  6
 15 16  1  0
 16 17  1  0
 17 18  1  0
 18 19  2  0
 19 20  1  0
 20 21  2  0
 21 22  1  0
 22 23  2  0
 23 24  1  0
 24 25  2  0
 25 26  1  0
 26 27  2  0
 14  2  1  0
 27 18  1  0
 16  4  1  0
 27 22  1  0
 13  8  1  0
M  END
>  <Compound_Key>  (1246) 
ent-40

>  <Ki>  (1246) 
40.0

>  <database>  (1246) 
NewLiterature

>  <Document_ChEMBL_ID>  (1246) 
10.1021/acs.jmedchem.0c02265

$$$$

     RDKit          2D

 27 31  0  0  0  0  0  0  0  0999 V2000
   -3.4441   -3.8551    0.0000 O   0  0  0  0  0  0  0  0  0  0  0  0
   -2.3351   -2.8451    0.0000 C   0  0  0  0  0  0  0  0  0  0  0  0
   -0.9059   -3.3005    0.0000 C   0  0  0  0  0  0  0  0  0  0  0  0
    0.2031   -2.2905    0.0000 C   0  0  0  0  0  0  0  0  0  0  0  0
   -0.5647   -1.9929    0.0000 C   0  0  0  0  0  0  0  0  0  0  0  0
   -1.8569   -1.5811    0.0000 N   0  0  0  0  0  0  0  0  0  0  0  0
   -1.8665    1.0958    0.0000 C   0  0  0  0  0  0  0  0  0  0  0  0
   -3.2957    1.5512    0.0000 C   0  0  0  0  0  0  0  0  0  0  0  0
   -3.6159    3.0166    0.0000 C   0  0  0  0  0  0  0  0  0  0  0  0
   -5.0451    3.4721    0.0000 C   0  0  0  0  0  0  0  0  0  0  0  0
   -6.1541    2.4621    0.0000 C   0  0  0  0  0  0  0  0  0  0  0  0
   -5.8339    0.9966    0.0000 C   0  0  0  0  0  0  0  0  0  0  0  0
   -4.4047    0.5412    0.0000 C   0  0  0  0  0  0  0  0  0  0  0  0
   -2.6553   -1.3796    0.0000 C   0  0  0  0  0  0  0  0  0  0  0  0
   -1.5463   -0.3696    0.0000 C   0  0  0  0  0  0  0  0  0  0  0  0
   -0.1171   -0.8250    0.0000 N   0  0  0  0  0  0  0  0  0  0  0  0
    0.9919    0.1850    0.0000 C   0  0  0  0  0  0  0  0  0  0  0  0
    2.4211   -0.2704    0.0000 C   0  0  0  0  0  0  0  0  0  0  0  0
    2.7413   -1.7359    0.0000 C   0  0  0  0  0  0  0  0  0  0  0  0
    4.1705   -2.1913    0.0000 C   0  0  0  0  0  0  0  0  0  0  0  0
    5.2795   -1.1813    0.0000 C   0  0  0  0  0  0  0  0  0  0  0  0
    4.9593    0.2842    0.0000 C   0  0  0  0  0  0  0  0  0  0  0  0
    6.0683    1.2942    0.0000 C   0  0  0  0  0  0  0  0  0  0  0  0
    5.7481    2.7596    0.0000 C   0  0  0  0  0  0  0  0  0  0  0  0
    4.3189    3.2150    0.0000 C   0  0  0  0  0  0  0  0  0  0  0  0
    3.2099    2.2050    0.0000 C   0  0  0  0  0  0  0  0  0  0  0  0
    3.5301    0.7396    0.0000 C   0  0  0  0  0  0  0  0  0  0  0  0
  2  1  1  6
  2  3  1  0
  4  3  1  1
  4  5  1  0
  5  6  1  0
  6  7  1  0
  7  8  1  0
  8  9  1  0
  9 10  1  0
 10 11  1  0
 11 12  1  0
 12 13  1  0
  6 14  1  0
 14 15  1  1
 15 16  1  0
 16 17  1  0
 17 18  1  0
 18 19  2  0
 19 20  1  0
 20 21  2  0
 21 22  1  0
 22 23  2  0
 23 24  1  0
 24 25  2  0
 25 26  1  0
 26 27  2  0
 14  2  1  0
 27 18  1  0
 16  4  1  0
 27 22  1  0
 13  8  1  0
M  END
>  <Compound_Key>  (1247) 
41

>  <Ki>  (1247) 
157.0

>  <database>  (1247) 
NewLiterature

>  <Document_ChEMBL_ID>  (1247) 
10.1021/acs.jmedchem.0c02265

$$$$

     RDKit          2D

 27 31  0  0  0  0  0  0  0  0999 V2000
   -3.4441   -3.8551    0.0000 O   0  0  0  0  0  0  0  0  0  0  0  0
   -2.3351   -2.8451    0.0000 C   0  0  0  0  0  0  0  0  0  0  0  0
   -0.9059   -3.3005    0.0000 C   0  0  0  0  0  0  0  0  0  0  0  0
    0.2031   -2.2905    0.0000 C   0  0  0  0  0  0  0  0  0  0  0  0
   -0.5647   -1.9929    0.0000 C   0  0  0  0  0  0  0  0  0  0  0  0
   -1.8569   -1.5811    0.0000 N   0  0  0  0  0  0  0  0  0  0  0  0
   -1.8665    1.0958    0.0000 C   0  0  0  0  0  0  0  0  0  0  0  0
   -3.2957    1.5512    0.0000 C   0  0  0  0  0  0  0  0  0  0  0  0
   -3.6159    3.0166    0.0000 C   0  0  0  0  0  0  0  0  0  0  0  0
   -5.0451    3.4721    0.0000 C   0  0  0  0  0  0  0  0  0  0  0  0
   -6.1541    2.4621    0.0000 C   0  0  0  0  0  0  0  0  0  0  0  0
   -5.8339    0.9966    0.0000 C   0  0  0  0  0  0  0  0  0  0  0  0
   -4.4047    0.5412    0.0000 C   0  0  0  0  0  0  0  0  0  0  0  0
   -2.6553   -1.3796    0.0000 C   0  0  0  0  0  0  0  0  0  0  0  0
   -1.5463   -0.3696    0.0000 C   0  0  0  0  0  0  0  0  0  0  0  0
   -0.1171   -0.8250    0.0000 N   0  0  0  0  0  0  0  0  0  0  0  0
    0.9919    0.1850    0.0000 C   0  0  0  0  0  0  0  0  0  0  0  0
    2.4211   -0.2704    0.0000 C   0  0  0  0  0  0  0  0  0  0  0  0
    2.7413   -1.7359    0.0000 C   0  0  0  0  0  0  0  0  0  0  0  0
    4.1705   -2.1913    0.0000 C   0  0  0  0  0  0  0  0  0  0  0  0
    5.2795   -1.1813    0.0000 C   0  0  0  0  0  0  0  0  0  0  0  0
    4.9593    0.2842    0.0000 C   0  0  0  0  0  0  0  0  0  0  0  0
    6.0683    1.2942    0.0000 C   0  0  0  0  0  0  0  0  0  0  0  0
    5.7481    2.7596    0.0000 C   0  0  0  0  0  0  0  0  0  0  0  0
    4.3189    3.2150    0.0000 C   0  0  0  0  0  0  0  0  0  0  0  0
    3.2099    2.2050    0.0000 C   0  0  0  0  0  0  0  0  0  0  0  0
    3.5301    0.7396    0.0000 C   0  0  0  0  0  0  0  0  0  0  0  0
  2  1  1  1
  2  3  1  0
  4  3  1  6
  4  5  1  0
  5  6  1  0
  6  7  1  0
  7  8  1  0
  8  9  1  0
  9 10  1  0
 10 11  1  0
 11 12  1  0
 12 13  1  0
  6 14  1  0
 14 15  1  6
 15 16  1  0
 16 17  1  0
 17 18  1  0
 18 19  2  0
 19 20  1  0
 20 21  2  0
 21 22  1  0
 22 23  2  0
 23 24  1  0
 24 25  2  0
 25 26  1  0
 26 27  2  0
 14  2  1  0
 27 18  1  0
 16  4  1  0
 27 22  1  0
 13  8  1  0
M  END
>  <Compound_Key>  (1248) 
ent-41

>  <Ki>  (1248) 
116.0

>  <database>  (1248) 
NewLiterature

>  <Document_ChEMBL_ID>  (1248) 
10.1021/acs.jmedchem.0c02265

$$$$

     RDKit          2D

 29 31  0  0  0  0  0  0  0  0999 V2000
   -7.1270   -3.8881    0.0000 C   0  0  0  0  0  0  0  0  0  0  0  0
   -5.8975   -3.0288    0.0000 O   0  0  0  0  0  0  0  0  0  0  0  0
   -6.0269   -1.5344    0.0000 C   0  0  0  0  0  0  0  0  0  0  0  0
   -7.3858   -0.8993    0.0000 C   0  0  0  0  0  0  0  0  0  0  0  0
   -7.5153    0.5951    0.0000 C   0  0  0  0  0  0  0  0  0  0  0  0
   -8.8742    1.2303    0.0000 Br  0  0  0  0  0  0  0  0  0  0  0  0
   -6.2858    1.4544    0.0000 C   0  0  0  0  0  0  0  0  0  0  0  0
   -4.9269    0.8193    0.0000 C   0  0  0  0  0  0  0  0  0  0  0  0
   -3.6974    1.6786    0.0000 C   0  0  0  0  0  0  0  0  0  0  0  0
   -3.8268    3.1730    0.0000 O   0  0  0  0  0  0  0  0  0  0  0  0
   -2.3385    1.0435    0.0000 N   0  0  0  0  0  0  0  0  0  0  0  0
   -1.1090    1.9028    0.0000 C   0  0  0  0  0  0  0  0  0  0  0  0
    0.2499    1.2677    0.0000 C   0  0  0  0  0  0  0  0  0  0  0  0
    1.4794    2.1270    0.0000 C   0  0  0  0  0  0  0  0  0  0  0  0
    2.8383    1.4918    0.0000 N   0  0  0  0  0  0  0  0  0  0  0  0
    2.9677   -0.0026    0.0000 C   0  0  0  0  0  0  0  0  0  0  0  0
    4.3266   -0.6377    0.0000 C   0  0  0  0  0  0  0  0  0  0  0  0
    5.5561    0.2216    0.0000 N   0  0  0  0  0  0  0  0  0  0  0  0
    6.9150   -0.4135    0.0000 C   0  0  0  0  0  0  0  0  0  0  0  0
    7.0444   -1.9079    0.0000 C   0  0  0  0  0  0  0  0  0  0  0  0
    8.4034   -2.5430    0.0000 C   0  0  0  0  0  0  0  0  0  0  0  0
    9.6328   -1.6837    0.0000 C   0  0  0  0  0  0  0  0  0  0  0  0
    9.5034   -0.1893    0.0000 C   0  0  0  0  0  0  0  0  0  0  0  0
    8.1445    0.4458    0.0000 C   0  0  0  0  0  0  0  0  0  0  0  0
    5.4267    1.7160    0.0000 C   0  0  0  0  0  0  0  0  0  0  0  0
    4.0678    2.3511    0.0000 C   0  0  0  0  0  0  0  0  0  0  0  0
   -4.7974   -0.6751    0.0000 C   0  0  0  0  0  0  0  0  0  0  0  0
   -3.4385   -1.3102    0.0000 O   0  0  0  0  0  0  0  0  0  0  0  0
   -3.3091   -2.8046    0.0000 C   0  0  0  0  0  0  0  0  0  0  0  0
  1  2  1  0
  2  3  1  0
  3  4  2  0
  4  5  1  0
  5  6  1  0
  5  7  2  0
  7  8  1  0
  8  9  1  0
  9 10  2  0
  9 11  1  0
 11 12  1  0
 12 13  1  0
 13 14  1  0
 14 15  1  0
 15 16  1  0
 16 17  1  0
 17 18  1  0
 18 19  1  0
 19 20  1  0
 20 21  1  0
 21 22  1  0
 22 23  1  0
 23 24  1  0
 18 25  1  0
 25 26  1  0
  8 27  2  0
 27 28  1  0
 28 29  1  0
 27  3  1  0
 26 15  1  0
 24 19  1  0
M  END
>  <ChemBL_ID>  (1249) 
CHEMBL1851932

>  <Compound_Key>  (1249) 
74

>  <Ki>  (1249) 
21.2

>  <database>  (1249) 
SRSLDB

>  <Document_ChEMBL_ID>  (1249) 
10.1021/acs.jmedchem.0c02265

$$$$

     RDKit          2D

 31 34  0  0  0  0  0  0  0  0999 V2000
    9.4437    2.1015    0.0000 C   0  0  0  0  0  0  0  0  0  0  0  0
    7.9572    1.9004    0.0000 O   0  0  0  0  0  0  0  0  0  0  0  0
    7.3881    0.5126    0.0000 C   0  0  0  0  0  0  0  0  0  0  0  0
    8.3055   -0.6742    0.0000 C   0  0  0  0  0  0  0  0  0  0  0  0
    7.7364   -2.0621    0.0000 C   0  0  0  0  0  0  0  0  0  0  0  0
    8.6538   -3.2488    0.0000 Br  0  0  0  0  0  0  0  0  0  0  0  0
    6.2500   -2.2631    0.0000 C   0  0  0  0  0  0  0  0  0  0  0  0
    5.3326   -1.0764    0.0000 C   0  0  0  0  0  0  0  0  0  0  0  0
    3.8461   -1.2774    0.0000 C   0  0  0  0  0  0  0  0  0  0  0  0
    3.2770   -2.6653    0.0000 O   0  0  0  0  0  0  0  0  0  0  0  0
    2.9287   -0.0907    0.0000 N   0  0  0  0  0  0  0  0  0  0  0  0
    1.4423   -0.2918    0.0000 C   0  0  0  0  0  0  0  0  0  0  0  0
    0.5249    0.8950    0.0000 C   0  0  0  0  0  0  0  0  0  0  0  0
   -0.9615    0.6939    0.0000 C   0  0  0  0  0  0  0  0  0  0  0  0
   -1.8789    1.8807    0.0000 C   0  0  0  0  0  0  0  0  0  0  0  0
   -3.3654    1.6796    0.0000 N   0  0  0  0  0  0  0  0  0  0  0  0
   -4.2827    2.8664    0.0000 C   0  0  0  0  0  0  0  0  0  0  0  0
   -5.7692    2.6653    0.0000 C   0  0  0  0  0  0  0  0  0  0  0  0
   -6.3383    1.2775    0.0000 C   0  0  0  0  0  0  0  0  0  0  0  0
   -7.8248    1.0764    0.0000 C   0  0  0  0  0  0  0  0  0  0  0  0
   -8.3939   -0.3115    0.0000 C   0  0  0  0  0  0  0  0  0  0  0  0
   -7.4765   -1.4982    0.0000 C   0  0  0  0  0  0  0  0  0  0  0  0
   -5.9900   -1.2972    0.0000 C   0  0  0  0  0  0  0  0  0  0  0  0
   -5.4209    0.0907    0.0000 C   0  0  0  0  0  0  0  0  0  0  0  0
   -3.9345    0.2918    0.0000 C   0  0  0  0  0  0  0  0  0  0  0  0
   -8.3217   -2.7374    0.0000 O   0  0  0  0  0  0  0  0  0  0  0  0
   -9.7614   -2.3165    0.0000 C   0  0  0  0  0  0  0  0  0  0  0  0
   -9.8060   -0.8172    0.0000 O   0  0  0  0  0  0  0  0  0  0  0  0
    5.9017    0.3115    0.0000 C   0  0  0  0  0  0  0  0  0  0  0  0
    4.9843    1.4983    0.0000 O   0  0  0  0  0  0  0  0  0  0  0  0
    5.5534    2.8861    0.0000 C   0  0  0  0  0  0  0  0  0  0  0  0
  1  2  1  0
  2  3  1  0
  3  4  2  0
  4  5  1  0
  5  6  1  0
  5  7  2  0
  7  8  1  0
  8  9  1  0
  9 10  2  0
  9 11  1  0
 11 12  1  0
 12 13  1  0
 13 14  1  0
 14 15  1  0
 15 16  1  0
 16 17  1  0
 17 18  1  0
 18 19  1  0
 19 20  2  0
 20 21  1  0
 21 22  2  0
 22 23  1  0
 23 24  2  0
 24 25  1  0
 22 26  1  0
 26 27  1  0
 27 28  1  0
  8 29  2  0
 29 30  1  0
 30 31  1  0
 29  3  1  0
 25 16  1  0
 24 19  1  0
 28 21  1  0
M  END
>  <ChemBL_ID>  (1250) 
CHEMBL246662

>  <Compound_Key>  (1250) 
63

>  <Ki>  (1250) 
20.7

>  <database>  (1250) 
SRSLDB

>  <Document_ChEMBL_ID>  (1250) 
10.1021/acs.jmedchem.0c02265

$$$$

     RDKit          2D

 24 27  0  0  0  0  0  0  0  0999 V2000
   -1.0926   -2.2780    0.0000 O   0  0  0  0  0  0  0  0  0  0  0  0
   -0.4341   -0.9303    0.0000 C   0  0  0  0  0  0  0  0  0  0  0  0
   -1.2720    0.3139    0.0000 C   0  0  0  0  0  0  0  0  0  0  0  0
   -2.7684    0.2103    0.0000 N   0  0  0  0  0  0  0  0  0  0  0  0
   -3.5642   -1.0612    0.0000 C   0  0  0  0  0  0  0  0  0  0  0  0
   -5.0194   -0.6973    0.0000 C   0  0  0  0  0  0  0  0  0  0  0  0
   -5.1230    0.7991    0.0000 C   0  0  0  0  0  0  0  0  0  0  0  0
   -3.7318    1.3600    0.0000 C   0  0  0  0  0  0  0  0  0  0  0  0
   -2.2472    1.6342    0.0000 C   0  0  0  0  0  0  0  0  0  0  0  0
   -1.4093    0.3901    0.0000 C   0  0  0  0  0  0  0  0  0  0  0  0
    0.0871    0.4937    0.0000 C   0  0  0  0  0  0  0  0  0  0  0  0
    0.9251   -0.7505    0.0000 C   0  0  0  0  0  0  0  0  0  0  0  0
    2.4215   -0.6469    0.0000 C   0  0  0  0  0  0  0  0  0  0  0  0
    3.0800    0.7008    0.0000 C   0  0  0  0  0  0  0  0  0  0  0  0
    2.2421    1.9450    0.0000 C   0  0  0  0  0  0  0  0  0  0  0  0
    0.7457    1.8414    0.0000 C   0  0  0  0  0  0  0  0  0  0  0  0
   -2.0678   -0.9577    0.0000 C   0  0  0  0  0  0  0  0  0  0  0  0
    1.0623   -0.8267    0.0000 C   0  0  0  0  0  0  0  0  0  0  0  0
    1.9002   -2.0709    0.0000 C   0  0  0  0  0  0  0  0  0  0  0  0
    3.3967   -1.9673    0.0000 C   0  0  0  0  0  0  0  0  0  0  0  0
    4.0552   -0.6195    0.0000 C   0  0  0  0  0  0  0  0  0  0  0  0
    3.2173    0.6246    0.0000 C   0  0  0  0  0  0  0  0  0  0  0  0
    3.8758    1.9723    0.0000 Br  0  0  0  0  0  0  0  0  0  0  0  0
    1.7208    0.5210    0.0000 C   0  0  0  0  0  0  0  0  0  0  0  0
  2  1  1  1
  2  3  1  0
  3  4  1  0
  4  5  1  0
  5  6  1  0
  6  7  1  0
  7  8  1  0
  8  9  1  0
  9 10  1  0
 10 11  1  0
 11 12  2  0
 12 13  1  0
 13 14  2  0
 14 15  1  0
 15 16  2  0
 10 17  1  0
  2 18  1  0
 18 19  2  0
 19 20  1  0
 20 21  2  0
 21 22  1  0
 22 23  1  0
 22 24  2  0
  8  4  1  0
 16 11  1  0
 24 18  1  0
 17  5  1  0
M  END
>  <Compound_Key>  (1251) 
RMH-138

>  <Ki>  (1251) 
9.9

>  <database>  (1251) 
NewLiterature

>  <Document_ChEMBL_ID>  (1251) 
10.1021/acs.jmedchem.0c02265

$$$$

     RDKit          2D

 18 19  0  0  0  0  0  0  0  0999 V2000
   -3.2472   -2.6148    0.0000 C   0  0  0  0  0  0  0  0  0  0  0  0
   -2.1122   -1.6342    0.0000 N   0  0  0  0  0  0  0  0  0  0  0  0
   -0.6954   -2.1268    0.0000 C   0  0  0  0  0  0  0  0  0  0  0  0
    0.4396   -1.1462    0.0000 C   0  0  0  0  0  0  0  0  0  0  0  0
    1.8564   -1.6388    0.0000 C   0  0  0  0  0  0  0  0  0  0  0  0
    2.9915   -0.6581    0.0000 C   0  0  0  0  0  0  0  0  0  0  0  0
    4.4082   -1.1508    0.0000 C   0  0  0  0  0  0  0  0  0  0  0  0
    5.5433   -0.1701    0.0000 C   0  0  0  0  0  0  0  0  0  0  0  0
    5.2615    1.3032    0.0000 C   0  0  0  0  0  0  0  0  0  0  0  0
    3.8447    1.7958    0.0000 C   0  0  0  0  0  0  0  0  0  0  0  0
    2.7097    0.8152    0.0000 C   0  0  0  0  0  0  0  0  0  0  0  0
   -2.3940   -0.1609    0.0000 C   0  0  0  0  0  0  0  0  0  0  0  0
   -1.2589    0.8198    0.0000 C   0  0  0  0  0  0  0  0  0  0  0  0
   -1.5407    2.2931    0.0000 C   0  0  0  0  0  0  0  0  0  0  0  0
   -2.9575    2.7857    0.0000 C   0  0  0  0  0  0  0  0  0  0  0  0
   -4.0925    1.8051    0.0000 C   0  0  0  0  0  0  0  0  0  0  0  0
   -3.8108    0.3318    0.0000 C   0  0  0  0  0  0  0  0  0  0  0  0
   -4.9458   -0.6489    0.0000 O   0  0  0  0  0  0  0  0  0  0  0  0
  1  2  1  0
  2  3  1  0
  3  4  1  0
  4  5  1  0
  5  6  1  0
  6  7  2  0
  7  8  1  0
  8  9  2  0
  9 10  1  0
 10 11  2  0
 12  2  1  1
 12 13  1  0
 13 14  1  0
 14 15  1  0
 15 16  1  0
 16 17  1  0
 17 18  1  6
 11  6  1  0
 17 12  1  0
M  END
>  <ChemBL_ID>  (1252) 
CHEMBL2413878

>  <Compound_Key>  (1252) 
54

>  <Ki>  (1252) 
6.7

>  <database>  (1252) 
SRSLDB

>  <Document_ChEMBL_ID>  (1252) 
10.4155/fmc-2017-0164

$$$$

     RDKit          2D

 63 68  0  0  0  0  0  0  0  0999 V2000
    9.3654   -5.0837    0.0000 C   0  0  0  0  0  0  0  0  0  0  0  0
    8.3887   -3.9454    0.0000 O   0  0  0  0  0  0  0  0  0  0  0  0
    6.9144   -4.2221    0.0000 C   0  0  0  0  0  0  0  0  0  0  0  0
    6.4169   -5.6372    0.0000 C   0  0  0  0  0  0  0  0  0  0  0  0
    4.9427   -5.9139    0.0000 C   0  0  0  0  0  0  0  0  0  0  0  0
    3.9659   -4.7755    0.0000 C   0  0  0  0  0  0  0  0  0  0  0  0
    2.4916   -5.0522    0.0000 C   0  0  0  0  0  0  0  0  0  0  0  0
    4.4634   -3.3604    0.0000 C   0  0  0  0  0  0  0  0  0  0  0  0
    5.9376   -3.0837    0.0000 C   0  0  0  0  0  0  0  0  0  0  0  0
    6.4351   -1.6686    0.0000 N   0  0  0  0  0  0  0  0  0  0  0  0
    7.9094   -1.3919    0.0000 C   0  0  0  0  0  0  0  0  0  0  0  0
    8.8861   -2.5303    0.0000 O   0  0  0  0  0  0  0  0  0  0  0  0
    8.4069    0.0232    0.0000 O   0  0  0  0  0  0  0  0  0  0  0  0
    9.8811    0.2999    0.0000 C   0  0  0  0  0  0  0  0  0  0  0  0
   10.8579   -0.8384    0.0000 C   0  0  0  0  0  0  0  0  0  0  0  0
   12.3321   -0.5617    0.0000 C   0  0  0  0  0  0  0  0  0  0  0  0
   13.8064   -0.2850    0.0000 C   0  0  0  0  0  0  0  0  0  0  0  0
   14.3039    1.1301    0.0000 C   0  0  0  0  0  0  0  0  0  0  0  0
   13.3271    2.2685    0.0000 C   0  0  0  0  0  0  0  0  0  0  0  0
   11.8528    1.9918    0.0000 C   0  0  0  0  0  0  0  0  0  0  0  0
   10.3786    1.7150    0.0000 C   0  0  0  0  0  0  0  0  0  0  0  0
   11.3554    0.5767    0.0000 N   0  0  0  0  0  0  0  0  0  0  0  0
    9.8811    0.2999    0.0000 C   0  0  0  0  0  0  0  0  0  0  0  0
    8.9043    1.4383    0.0000 C   0  0  0  0  0  0  0  0  0  0  0  0
    7.4301    1.1616    0.0000 C   0  0  0  0  0  0  0  0  0  0  0  0
    6.4533    2.3000    0.0000 C   0  0  0  0  0  0  0  0  0  0  0  0
    4.9791    2.0233    0.0000 C   0  0  0  0  0  0  0  0  0  0  0  0
    4.0023    3.1616    0.0000 C   0  0  0  0  0  0  0  0  0  0  0  0
    2.5280    2.8849    0.0000 C   0  0  0  0  0  0  0  0  0  0  0  0
    1.5513    4.0233    0.0000 C   0  0  0  0  0  0  0  0  0  0  0  0
    0.0770    3.7466    0.0000 C   0  0  0  0  0  0  0  0  0  0  0  0
   -0.8998    4.8850    0.0000 C   0  0  0  0  0  0  0  0  0  0  0  0
   -2.3740    4.6083    0.0000 N   0  0  0  0  0  0  0  0  0  0  0  0
   -3.3508    5.7466    0.0000 C   0  0  0  0  0  0  0  0  0  0  0  0
   -2.8533    7.1617    0.0000 C   0  0  0  0  0  0  0  0  0  0  0  0
   -4.8251    5.4699    0.0000 C   0  0  0  0  0  0  0  0  0  0  0  0
   -5.8018    6.6083    0.0000 O   0  0  0  0  0  0  0  0  0  0  0  0
   -5.3225    4.0548    0.0000 N   0  0  0  0  0  0  0  0  0  0  0  0
   -6.7968    3.7781    0.0000 C   0  0  0  0  0  0  0  0  0  0  0  0
   -7.2943    2.3630    0.0000 C   0  0  0  0  0  0  0  0  0  0  0  0
   -8.7685    2.0863    0.0000 O   0  0  0  0  0  0  0  0  0  0  0  0
   -6.3175    1.2246    0.0000 N   0  0  0  0  0  0  0  0  0  0  0  0
   -4.8224    1.3457    0.0000 C   0  0  0  0  0  0  0  0  0  0  0  0
   -4.2452   -0.0388    0.0000 C   0  0  0  0  0  0  0  0  0  0  0  0
   -5.3836   -1.0156    0.0000 C   0  0  0  0  0  0  0  0  0  0  0  0
   -6.6643   -0.2347    0.0000 C   0  0  0  0  0  0  0  0  0  0  0  0
   -8.0488   -0.8119    0.0000 C   0  0  0  0  0  0  0  0  0  0  0  0
   -9.2410    0.0985    0.0000 O   0  0  0  0  0  0  0  0  0  0  0  0
   -8.2412   -2.2995    0.0000 N   0  0  0  0  0  0  0  0  0  0  0  0
   -9.6257   -2.8767    0.0000 C   0  0  0  0  0  0  0  0  0  0  0  0
  -10.8179   -1.9663    0.0000 C   0  0  0  0  0  0  0  0  0  0  0  0
  -12.2024   -2.5435    0.0000 C   0  0  0  0  0  0  0  0  0  0  0  0
  -12.3948   -4.0311    0.0000 C   0  0  0  0  0  0  0  0  0  0  0  0
  -11.2026   -4.9415    0.0000 C   0  0  0  0  0  0  0  0  0  0  0  0
  -11.3950   -6.4291    0.0000 C   0  0  0  0  0  0  0  0  0  0  0  0
  -10.2029   -7.3396    0.0000 C   0  0  0  0  0  0  0  0  0  0  0  0
   -8.8184   -6.7624    0.0000 C   0  0  0  0  0  0  0  0  0  0  0  0
   -8.6260   -5.2748    0.0000 C   0  0  0  0  0  0  0  0  0  0  0  0
   -9.8181   -4.3643    0.0000 C   0  0  0  0  0  0  0  0  0  0  0  0
   -7.7736    4.9165    0.0000 C   0  0  0  0  0  0  0  0  0  0  0  0
   -6.6352    5.8933    0.0000 C   0  0  0  0  0  0  0  0  0  0  0  0
   -8.9119    3.9397    0.0000 C   0  0  0  0  0  0  0  0  0  0  0  0
   -8.7503    6.0549    0.0000 C   0  0  0  0  0  0  0  0  0  0  0  0
  1  2  1  0
  2  3  1  0
  3  4  2  0
  4  5  1  0
  5  6  2  0
  6  7  1  0
  6  8  1  0
  8  9  2  0
  9 10  1  0
 10 11  1  0
 11 12  2  0
 11 13  1  0
 13 14  1  0
 14 15  1  0
 15 16  1  0
 16 17  1  0
 17 18  1  0
 18 19  1  0
 19 20  1  0
 20 21  1  0
 20 22  1  0
 22 23  1  0
 23 24  1  0
 24 25  1  0
 25 26  1  0
 26 27  1  0
 27 28  1  0
 28 29  1  0
 29 30  1  0
 30 31  1  0
 31 32  1  0
 32 33  1  0
 33 34  1  0
 34 35  1  0
 34 36  1  0
 36 37  2  0
 36 38  1  0
 39 38  1  1
 39 40  1  0
 40 41  2  0
 40 42  1  0
 42 43  1  0
 43 44  1  0
 44 45  1  0
 45 46  1  0
 46 47  1  6
 47 48  2  0
 47 49  1  0
 50 49  1  6
 50 51  1  0
 51 52  1  0
 52 53  1  0
 53 54  1  0
 54 55  2  0
 55 56  1  0
 56 57  2  0
 57 58  1  0
 58 59  2  0
 39 60  1  0
 60 61  1  0
 60 62  1  0
 60 63  1  0
  9  3  1  0
 21 14  1  0
 46 42  1  0
 59 50  1  0
 22 16  1  0
 59 54  1  0
M  END
>  <Compound_Key>  (1253) 
SW III-123

>  <Ki>  (1253) 
190.0

>  <database>  (1253) 
NewLiterature

>  <Document_ChEMBL_ID>  (1253) 
10.1021/acs.jmedchem.0c02265

$$$$

     RDKit          2D

 19 20  0  0  0  0  0  0  0  0999 V2000
   -1.5354    3.2581    0.0000 C   0  0  0  0  0  0  0  0  0  0  0  0
   -1.1025    1.8220    0.0000 N   0  0  0  0  0  0  0  0  0  0  0  0
    0.3578    1.4788    0.0000 C   0  0  0  0  0  0  0  0  0  0  0  0
    0.7907    0.0427    0.0000 C   0  0  0  0  0  0  0  0  0  0  0  0
    2.2510   -0.3004    0.0000 C   0  0  0  0  0  0  0  0  0  0  0  0
    2.6839   -1.7366    0.0000 C   0  0  0  0  0  0  0  0  0  0  0  0
    4.1442   -2.0797    0.0000 C   0  0  0  0  0  0  0  0  0  0  0  0
    5.1714   -0.9867    0.0000 C   0  0  0  0  0  0  0  0  0  0  0  0
    6.6316   -1.3298    0.0000 Cl  0  0  0  0  0  0  0  0  0  0  0  0
    4.7384    0.4495    0.0000 C   0  0  0  0  0  0  0  0  0  0  0  0
    5.7657    1.5425    0.0000 Cl  0  0  0  0  0  0  0  0  0  0  0  0
    3.2782    0.7926    0.0000 C   0  0  0  0  0  0  0  0  0  0  0  0
   -2.1297    0.7289    0.0000 C   0  0  0  0  0  0  0  0  0  0  0  0
   -3.5900    1.0720    0.0000 C   0  0  0  0  0  0  0  0  0  0  0  0
   -4.6172   -0.0210    0.0000 N   0  0  0  0  0  0  0  0  0  0  0  0
   -4.3368   -1.4945    0.0000 C   0  0  0  0  0  0  0  0  0  0  0  0
   -5.6515   -2.2166    0.0000 C   0  0  0  0  0  0  0  0  0  0  0  0
   -6.7445   -1.1894    0.0000 C   0  0  0  0  0  0  0  0  0  0  0  0
   -6.1053    0.1676    0.0000 C   0  0  0  0  0  0  0  0  0  0  0  0
  1  2  1  0
  2  3  1  0
  3  4  1  0
  4  5  1  0
  5  6  2  0
  6  7  1  0
  7  8  2  0
  8  9  1  0
  8 10  1  0
 10 11  1  0
 10 12  2  0
  2 13  1  0
 13 14  1  0
 14 15  1  0
 15 16  1  0
 16 17  1  0
 17 18  1  0
 18 19  1  0
 12  5  1  0
 19 15  1  0
M  END
>  <ChemBL_ID>  (1254) 
CHEMBL20377

>  <Compound_Key>  (1254) 
1

>  <Ki>  (1254) 
8.1

>  <database>  (1254) 
CHEMBL

>  <Assay_ChEMBL_ID>  (1254) 
CHEMBL848651

>  <Document_ChEMBL_ID>  (1254) 
CHEMBL1126607

$$$$

     RDKit          2D

 30 33  0  0  0  0  0  0  0  0999 V2000
   -9.6523    0.8895    0.0000 C   0  0  0  0  0  0  0  0  0  0  0  0
   -8.7747   -0.3270    0.0000 O   0  0  0  0  0  0  0  0  0  0  0  0
   -7.2824   -0.1753    0.0000 C   0  0  0  0  0  0  0  0  0  0  0  0
   -6.6677    1.1930    0.0000 C   0  0  0  0  0  0  0  0  0  0  0  0
   -5.1754    1.3447    0.0000 C   0  0  0  0  0  0  0  0  0  0  0  0
   -4.2978    0.1282    0.0000 C   0  0  0  0  0  0  0  0  0  0  0  0
   -4.9125   -1.2401    0.0000 C   0  0  0  0  0  0  0  0  0  0  0  0
   -6.4048   -1.3918    0.0000 C   0  0  0  0  0  0  0  0  0  0  0  0
   -7.0196   -2.7600    0.0000 O   0  0  0  0  0  0  0  0  0  0  0  0
   -6.1420   -3.9765    0.0000 C   0  0  0  0  0  0  0  0  0  0  0  0
   -2.8055    0.2799    0.0000 C   0  0  0  0  0  0  0  0  0  0  0  0
   -2.1908    1.6482    0.0000 N   0  0  0  0  0  0  0  0  0  0  0  0
   -0.6984    1.7999    0.0000 C   0  0  0  0  0  0  0  0  0  0  0  0
    0.1791    0.5834    0.0000 C   0  0  0  0  0  0  0  0  0  0  0  0
    1.6714    0.7352    0.0000 C   0  0  0  0  0  0  0  0  0  0  0  0
    2.5490   -0.4814    0.0000 C   0  0  0  0  0  0  0  0  0  0  0  0
    4.0413   -0.3296    0.0000 C   0  0  0  0  0  0  0  0  0  0  0  0
    4.7957    0.9669    0.0000 C   0  0  0  0  0  0  0  0  0  0  0  0
    6.2618    0.6500    0.0000 N   0  0  0  0  0  0  0  0  0  0  0  0
    7.3799    1.6500    0.0000 C   0  0  0  0  0  0  0  0  0  0  0  0
    7.0731    3.1182    0.0000 C   0  0  0  0  0  0  0  0  0  0  0  0
    8.1912    4.1181    0.0000 F   0  0  0  0  0  0  0  0  0  0  0  0
    6.4136   -0.8423    0.0000 C   0  0  0  0  0  0  0  0  0  0  0  0
    7.6241   -1.7280    0.0000 C   0  0  0  0  0  0  0  0  0  0  0  0
    7.4623   -3.2193    0.0000 C   0  0  0  0  0  0  0  0  0  0  0  0
    6.0899   -3.8247    0.0000 C   0  0  0  0  0  0  0  0  0  0  0  0
    4.8794   -2.9390    0.0000 C   0  0  0  0  0  0  0  0  0  0  0  0
    5.0412   -1.4477    0.0000 C   0  0  0  0  0  0  0  0  0  0  0  0
   -3.0683    2.8647    0.0000 C   0  0  0  0  0  0  0  0  0  0  0  0
   -4.5606    2.7129    0.0000 C   0  0  0  0  0  0  0  0  0  0  0  0
  1  2  1  0
  2  3  1  0
  3  4  2  0
  4  5  1  0
  5  6  2  0
  6  7  1  0
  7  8  2  0
  8  9  1  0
  9 10  1  0
  6 11  1  0
 11 12  1  0
 12 13  1  0
 13 14  1  0
 14 15  1  0
 15 16  1  0
 16 17  1  0
 17 18  2  0
 18 19  1  0
 19 20  1  0
 20 21  1  0
 21 22  1  0
 19 23  1  0
 23 24  2  0
 24 25  1  0
 25 26  2  0
 26 27  1  0
 27 28  2  0
 12 29  1  0
 29 30  1  0
  8  3  1  0
 28 17  1  0
 30  5  1  0
 28 23  1  0
M  END
>  <Compound_Key>  (1255) 
52

>  <Ki>  (1255) 
27.5

>  <database>  (1255) 
NewLiterature

>  <Document_ChEMBL_ID>  (1255) 
10.1021/acs.jmedchem.0c02265

$$$$

     RDKit          2D

 34 38  0  0  0  0  0  0  0  0999 V2000
    9.7577    3.6953    0.0000 C   0  0  0  0  0  0  0  0  0  0  0  0
    8.6021    2.7390    0.0000 C   0  0  0  0  0  0  0  0  0  0  0  0
    8.8525    1.2600    0.0000 C   0  0  0  0  0  0  0  0  0  0  0  0
    7.6969    0.3037    0.0000 C   0  0  0  0  0  0  0  0  0  0  0  0
    6.2909    0.8263    0.0000 C   0  0  0  0  0  0  0  0  0  0  0  0
    5.1353   -0.1301    0.0000 N   0  0  0  0  0  0  0  0  0  0  0  0
    3.6823    0.2427    0.0000 C   0  0  0  0  0  0  0  0  0  0  0  0
    2.8788   -1.0239    0.0000 C   0  0  0  0  0  0  0  0  0  0  0  0
    1.3818   -1.1184    0.0000 C   0  0  0  0  0  0  0  0  0  0  0  0
    0.5515    0.1308    0.0000 C   0  0  0  0  0  0  0  0  0  0  0  0
   -0.9455    0.0364    0.0000 C   0  0  0  0  0  0  0  0  0  0  0  0
   -1.7758    1.2856    0.0000 C   0  0  0  0  0  0  0  0  0  0  0  0
   -3.2729    1.1911    0.0000 N   0  0  0  0  0  0  0  0  0  0  0  0
   -4.1032    2.4404    0.0000 C   0  0  0  0  0  0  0  0  0  0  0  0
   -5.6002    2.3459    0.0000 C   0  0  0  0  0  0  0  0  0  0  0  0
   -6.2669    1.0022    0.0000 C   0  0  0  0  0  0  0  0  0  0  0  0
   -7.4744    1.8921    0.0000 C   0  0  0  0  0  0  0  0  0  0  0  0
   -8.6819    2.7821    0.0000 N   0  0  0  0  0  0  0  0  0  0  0  0
   -7.3530   -0.0324    0.0000 C   0  0  0  0  0  0  0  0  0  0  0  0
   -8.7920    0.3909    0.0000 C   0  0  0  0  0  0  0  0  0  0  0  0
   -9.8781   -0.6438    0.0000 C   0  0  0  0  0  0  0  0  0  0  0  0
   -9.5251   -2.1016    0.0000 C   0  0  0  0  0  0  0  0  0  0  0  0
   -8.0861   -2.5249    0.0000 C   0  0  0  0  0  0  0  0  0  0  0  0
   -7.0000   -1.4903    0.0000 C   0  0  0  0  0  0  0  0  0  0  0  0
   -5.4366   -0.2470    0.0000 C   0  0  0  0  0  0  0  0  0  0  0  0
   -3.9396   -0.1525    0.0000 C   0  0  0  0  0  0  0  0  0  0  0  0
    3.8352   -2.1795    0.0000 C   0  0  0  0  0  0  0  0  0  0  0  0
    3.6163   -3.6635    0.0000 C   0  0  0  0  0  0  0  0  0  0  0  0
    4.7920   -4.5950    0.0000 C   0  0  0  0  0  0  0  0  0  0  0  0
    6.1866   -4.0426    0.0000 C   0  0  0  0  0  0  0  0  0  0  0  0
    6.4054   -2.5586    0.0000 C   0  0  0  0  0  0  0  0  0  0  0  0
    5.2297   -1.6271    0.0000 C   0  0  0  0  0  0  0  0  0  0  0  0
    6.0405    2.3052    0.0000 C   0  0  0  0  0  0  0  0  0  0  0  0
    7.1960    3.2616    0.0000 C   0  0  0  0  0  0  0  0  0  0  0  0
  1  2  1  0
  2  3  2  0
  3  4  1  0
  4  5  2  0
  5  6  1  0
  6  7  1  0
  7  8  2  0
  8  9  1  0
  9 10  1  0
 10 11  1  0
 11 12  1  0
 12 13  1  0
 13 14  1  0
 14 15  1  0
 15 16  1  0
 16 17  1  0
 17 18  3  0
 16 19  1  0
 19 20  2  0
 20 21  1  0
 21 22  2  0
 22 23  1  0
 23 24  2  0
 16 25  1  0
 25 26  1  0
  8 27  1  0
 27 28  2  0
 28 29  1  0
 29 30  2  0
 30 31  1  0
 31 32  2  0
  5 33  1  0
 33 34  2  0
 34  2  1  0
 32  6  1  0
 26 13  1  0
 32 27  1  0
 24 19  1  0
M  END
>  <Compound_Key>  (1256) 
53

>  <Ki>  (1256) 
18.5

>  <database>  (1256) 
NewLiterature

>  <Document_ChEMBL_ID>  (1256) 
10.1021/acs.jmedchem.0c02265

$$$$

     RDKit          2D

 20 25  0  0  0  0  0  0  0  0999 V2000
   -1.0672   -2.3388    0.0000 C   0  0  0  0  0  0  0  0  0  0  0  0
   -0.3431   -1.0251    0.0000 N   0  0  0  0  0  0  0  0  0  0  0  0
   -1.1188    0.2588    0.0000 C   0  0  0  0  0  0  0  0  0  0  0  0
   -2.6185    0.2290    0.0000 C   0  0  0  0  0  0  0  0  0  0  0  0
   -3.3941    1.5129    0.0000 C   0  0  0  0  0  0  0  0  0  0  0  0
   -4.8938    1.4831    0.0000 C   0  0  0  0  0  0  0  0  0  0  0  0
   -5.6179    0.1695    0.0000 C   0  0  0  0  0  0  0  0  0  0  0  0
   -4.8422   -1.1144    0.0000 C   0  0  0  0  0  0  0  0  0  0  0  0
   -3.3425   -1.0847    0.0000 C   0  0  0  0  0  0  0  0  0  0  0  0
    1.1566   -0.9954    0.0000 C   0  0  0  0  0  0  0  0  0  0  0  0
    2.0622   -2.1911    0.0000 C   0  0  0  0  0  0  0  0  0  0  0  0
    1.9031   -0.6996    0.0000 C   0  0  0  0  0  0  0  0  0  0  0  0
    0.8978    0.4136    0.0000 C   0  0  0  0  0  0  0  0  0  0  0  0
    1.6458    1.7138    0.0000 C   0  0  0  0  0  0  0  0  0  0  0  0
    3.1135    1.4041    0.0000 C   0  0  0  0  0  0  0  0  0  0  0  0
    3.2726   -0.0874    0.0000 C   0  0  0  0  0  0  0  0  0  0  0  0
    4.2779   -1.2007    0.0000 C   0  0  0  0  0  0  0  0  0  0  0  0
    3.5299   -2.5008    0.0000 C   0  0  0  0  0  0  0  0  0  0  0  0
    3.4232    2.8718    0.0000 C   0  0  0  0  0  0  0  0  0  0  0  0
    1.9555    3.1815    0.0000 C   0  0  0  0  0  0  0  0  0  0  0  0
  1  2  1  0
  2  3  1  0
  3  4  1  0
  4  5  2  0
  5  6  1  0
  6  7  2  0
  7  8  1  0
  8  9  2  0
  2 10  1  0
 10 11  1  0
 11 12  1  0
 12 13  1  0
 13 14  1  0
 14 15  1  0
 15 16  1  0
 16 17  1  0
 17 18  1  0
 18 19  1  0
 19 20  1  0
  9  4  1  0
 20 10  1  0
 18 11  1  0
 16 12  1  0
 20 14  1  0
 19 15  1  0
M  END
>  <ChemBL_ID>  (1257) 
CHEMBL2432055

>  <Ki>  (1257) 
50.0

>  <database>  (1257) 
SRSLDB

$$$$

     RDKit          2D

 20 25  0  0  0  0  0  0  0  0999 V2000
   -1.0672   -2.3388    0.0000 C   0  0  0  0  0  0  0  0  0  0  0  0
   -0.3431   -1.0251    0.0000 N   0  0  0  0  0  0  0  0  0  0  0  0
   -1.1188    0.2588    0.0000 C   0  0  0  0  0  0  0  0  0  0  0  0
   -2.6185    0.2290    0.0000 C   0  0  0  0  0  0  0  0  0  0  0  0
   -3.3941    1.5129    0.0000 C   0  0  0  0  0  0  0  0  0  0  0  0
   -4.8938    1.4831    0.0000 C   0  0  0  0  0  0  0  0  0  0  0  0
   -5.6179    0.1695    0.0000 C   0  0  0  0  0  0  0  0  0  0  0  0
   -4.8422   -1.1144    0.0000 C   0  0  0  0  0  0  0  0  0  0  0  0
   -3.3425   -1.0847    0.0000 C   0  0  0  0  0  0  0  0  0  0  0  0
    1.1566   -0.9954    0.0000 C   0  0  0  0  0  0  0  0  0  0  0  0
    2.0622   -2.1911    0.0000 C   0  0  0  0  0  0  0  0  0  0  0  0
    1.9031   -0.6996    0.0000 C   0  0  0  0  0  0  0  0  0  0  0  0
    0.8978    0.4136    0.0000 C   0  0  0  0  0  0  0  0  0  0  0  0
    1.6458    1.7138    0.0000 C   0  0  0  0  0  0  0  0  0  0  0  0
    3.1135    1.4041    0.0000 C   0  0  0  0  0  0  0  0  0  0  0  0
    3.2726   -0.0874    0.0000 C   0  0  0  0  0  0  0  0  0  0  0  0
    4.2779   -1.2007    0.0000 C   0  0  0  0  0  0  0  0  0  0  0  0
    3.5299   -2.5008    0.0000 C   0  0  0  0  0  0  0  0  0  0  0  0
    3.4232    2.8718    0.0000 C   0  0  0  0  0  0  0  0  0  0  0  0
    1.9555    3.1815    0.0000 C   0  0  0  0  0  0  0  0  0  0  0  0
  1  2  1  0
  2  3  1  0
  3  4  1  0
  4  5  1  0
  5  6  1  0
  6  7  1  0
  7  8  1  0
  8  9  1  0
  2 10  1  0
 10 11  1  0
 11 12  1  0
 12 13  1  0
 13 14  1  0
 14 15  1  0
 15 16  1  0
 16 17  1  0
 17 18  1  0
 18 19  1  0
 19 20  1  0
  9  4  1  0
 20 10  1  0
 18 11  1  0
 16 12  1  0
 20 14  1  0
 19 15  1  0
M  END
>  <ChemBL_ID>  (1258) 
CHEMBL2432063

>  <Ki>  (1258) 
14.0

>  <database>  (1258) 
SRSLDB

$$$$

     RDKit          2D

 19 20  0  0  0  0  0  0  0  0999 V2000
    7.1927   -1.9130    0.0000 C   0  0  0  0  0  0  0  0  0  0  0  0
    6.6349   -0.5205    0.0000 O   0  0  0  0  0  0  0  0  0  0  0  0
    5.1502   -0.3074    0.0000 C   0  0  0  0  0  0  0  0  0  0  0  0
    4.2232   -1.4867    0.0000 C   0  0  0  0  0  0  0  0  0  0  0  0
    2.7384   -1.2735    0.0000 C   0  0  0  0  0  0  0  0  0  0  0  0
    2.1806    0.1189    0.0000 C   0  0  0  0  0  0  0  0  0  0  0  0
    0.6958    0.3320    0.0000 C   0  0  0  0  0  0  0  0  0  0  0  0
    0.1380    1.7245    0.0000 C   0  0  0  0  0  0  0  0  0  0  0  0
   -1.3468    1.9376    0.0000 N   0  0  0  0  0  0  0  0  0  0  0  0
   -1.9046    3.3300    0.0000 C   0  0  0  0  0  0  0  0  0  0  0  0
   -2.2737    0.7583    0.0000 C   0  0  0  0  0  0  0  0  0  0  0  0
   -3.7585    0.9715    0.0000 C   0  0  0  0  0  0  0  0  0  0  0  0
   -4.6855   -0.2078    0.0000 N   0  0  0  0  0  0  0  0  0  0  0  0
   -4.2763   -1.6509    0.0000 C   0  0  0  0  0  0  0  0  0  0  0  0
   -5.5223   -2.4860    0.0000 C   0  0  0  0  0  0  0  0  0  0  0  0
   -6.7016   -1.5591    0.0000 C   0  0  0  0  0  0  0  0  0  0  0  0
   -6.1844   -0.1510    0.0000 C   0  0  0  0  0  0  0  0  0  0  0  0
    3.1076    1.2982    0.0000 C   0  0  0  0  0  0  0  0  0  0  0  0
    4.5924    1.0850    0.0000 C   0  0  0  0  0  0  0  0  0  0  0  0
  1  2  1  0
  2  3  1  0
  3  4  2  0
  4  5  1  0
  5  6  2  0
  6  7  1  0
  7  8  1  0
  8  9  1  0
  9 10  1  0
  9 11  1  0
 11 12  1  0
 12 13  1  0
 13 14  1  0
 14 15  1  0
 15 16  1  0
 16 17  1  0
  6 18  1  0
 18 19  2  0
 19  3  1  0
 17 13  1  0
M  END
>  <Compound_Key>  (1259) 
20b, YZ-016

>  <Ki>  (1259) 
256.0

>  <database>  (1259) 
NewLiterature

>  <Document_ChEMBL_ID>  (1259) 
10.4155/fmc-2017-0164

$$$$

     RDKit          2D

 20 21  0  0  0  0  0  0  0  0999 V2000
   -3.3377    3.2492    0.0000 C   0  0  0  0  0  0  0  0  0  0  0  0
   -1.8463    3.0891    0.0000 C   0  0  0  0  0  0  0  0  0  0  0  0
   -1.2393    1.7174    0.0000 N   0  0  0  0  0  0  0  0  0  0  0  0
    0.2522    1.5573    0.0000 C   0  0  0  0  0  0  0  0  0  0  0  0
    0.8592    0.1856    0.0000 C   0  0  0  0  0  0  0  0  0  0  0  0
    2.3506    0.0255    0.0000 C   0  0  0  0  0  0  0  0  0  0  0  0
    2.9577   -1.3462    0.0000 C   0  0  0  0  0  0  0  0  0  0  0  0
    4.4491   -1.5063    0.0000 C   0  0  0  0  0  0  0  0  0  0  0  0
    5.3335   -0.2948    0.0000 C   0  0  0  0  0  0  0  0  0  0  0  0
    6.8249   -0.4549    0.0000 O   0  0  0  0  0  0  0  0  0  0  0  0
    7.4320   -1.8266    0.0000 C   0  0  0  0  0  0  0  0  0  0  0  0
    4.7265    1.0769    0.0000 C   0  0  0  0  0  0  0  0  0  0  0  0
    3.2350    1.2370    0.0000 C   0  0  0  0  0  0  0  0  0  0  0  0
   -2.1236    0.5058    0.0000 C   0  0  0  0  0  0  0  0  0  0  0  0
   -3.6151    0.6660    0.0000 C   0  0  0  0  0  0  0  0  0  0  0  0
   -4.4995   -0.5456    0.0000 N   0  0  0  0  0  0  0  0  0  0  0  0
   -4.0391   -1.9732    0.0000 C   0  0  0  0  0  0  0  0  0  0  0  0
   -5.2546   -2.8522    0.0000 C   0  0  0  0  0  0  0  0  0  0  0  0
   -6.4662   -1.9678    0.0000 C   0  0  0  0  0  0  0  0  0  0  0  0
   -5.9994   -0.5423    0.0000 C   0  0  0  0  0  0  0  0  0  0  0  0
  1  2  1  0
  2  3  1  0
  3  4  1  0
  4  5  1  0
  5  6  1  0
  6  7  2  0
  7  8  1  0
  8  9  2  0
  9 10  1  0
 10 11  1  0
  9 12  1  0
 12 13  2  0
  3 14  1  0
 14 15  1  0
 15 16  1  0
 16 17  1  0
 17 18  1  0
 18 19  1  0
 19 20  1  0
 13  6  1  0
 20 16  1  0
M  END
>  <Compound_Key>  (1260) 
20d, UMB115

>  <Ki>  (1260) 
3014.0

>  <database>  (1260) 
NewLiterature

>  <Document_ChEMBL_ID>  (1260) 
10.4155/fmc-2017-0164

$$$$

     RDKit          2D

 21 23  0  0  0  0  0  0  0  0999 V2000
   -7.2640   -0.2772    0.0000 C   0  0  0  0  0  0  0  0  0  0  0  0
   -5.8777   -0.8503    0.0000 O   0  0  0  0  0  0  0  0  0  0  0  0
   -4.6884    0.0638    0.0000 C   0  0  0  0  0  0  0  0  0  0  0  0
   -4.8852    1.5508    0.0000 C   0  0  0  0  0  0  0  0  0  0  0  0
   -3.6959    2.4648    0.0000 C   0  0  0  0  0  0  0  0  0  0  0  0
   -2.3096    1.8918    0.0000 C   0  0  0  0  0  0  0  0  0  0  0  0
   -2.1128    0.4048    0.0000 C   0  0  0  0  0  0  0  0  0  0  0  0
   -3.3021   -0.5092    0.0000 C   0  0  0  0  0  0  0  0  0  0  0  0
   -3.1052   -1.9963    0.0000 C   0  0  0  0  0  0  0  0  0  0  0  0
   -1.7190   -2.5693    0.0000 C   0  0  0  0  0  0  0  0  0  0  0  0
   -0.5296   -1.6553    0.0000 C   0  0  0  0  0  0  0  0  0  0  0  0
   -0.7265   -0.1682    0.0000 C   0  0  0  0  0  0  0  0  0  0  0  0
    0.4628    0.7458    0.0000 C   0  0  0  0  0  0  0  0  0  0  0  0
    1.8491    0.1728    0.0000 C   0  0  0  0  0  0  0  0  0  0  0  0
    3.0384    1.0868    0.0000 C   0  0  0  0  0  0  0  0  0  0  0  0
    4.4247    0.5138    0.0000 N   0  0  0  0  0  0  0  0  0  0  0  0
    4.6216   -0.9732    0.0000 C   0  0  0  0  0  0  0  0  0  0  0  0
    6.0078   -1.5463    0.0000 C   0  0  0  0  0  0  0  0  0  0  0  0
    7.1972   -0.6322    0.0000 N   0  0  0  0  0  0  0  0  0  0  0  0
    7.0003    0.8548    0.0000 C   0  0  0  0  0  0  0  0  0  0  0  0
    5.6140    1.4278    0.0000 C   0  0  0  0  0  0  0  0  0  0  0  0
  1  2  1  0
  2  3  1  0
  3  4  2  0
  4  5  1  0
  5  6  2  0
  6  7  1  0
  7  8  2  0
  8  9  1  0
  9 10  1  0
 10 11  1  0
 11 12  1  0
 12 13  1  0
 13 14  1  0
 14 15  1  0
 15 16  1  0
 16 17  1  0
 17 18  1  0
 18 19  1  0
 19 20  1  0
 20 21  1  0
  8  3  1  0
 21 16  1  0
 12  7  1  0
M  END
>  <Compound_Key>  (1261) 
58

>  <Ki>  (1261) 
590.0

>  <database>  (1261) 
NewLiterature

>  <Document_ChEMBL_ID>  (1261) 
10.1021/acs.jmedchem.0c02265

$$$$

     RDKit          2D

 31 34  0  0  0  0  0  0  0  0999 V2000
    9.5400   -3.3122    0.0000 C   0  0  0  0  0  0  0  0  0  0  0  0
    9.3591   -1.8231    0.0000 C   0  0  0  0  0  0  0  0  0  0  0  0
   10.5583   -0.9220    0.0000 O   0  0  0  0  0  0  0  0  0  0  0  0
    7.9792   -1.2352    0.0000 C   0  0  0  0  0  0  0  0  0  0  0  0
    6.7800   -2.1363    0.0000 C   0  0  0  0  0  0  0  0  0  0  0  0
    5.4000   -1.5484    0.0000 C   0  0  0  0  0  0  0  0  0  0  0  0
    5.2192   -0.0594    0.0000 C   0  0  0  0  0  0  0  0  0  0  0  0
    6.4184    0.8418    0.0000 C   0  0  0  0  0  0  0  0  0  0  0  0
    7.7983    0.2538    0.0000 C   0  0  0  0  0  0  0  0  0  0  0  0
    5.9319    2.2607    0.0000 O   0  0  0  0  0  0  0  0  0  0  0  0
    4.4321    2.2365    0.0000 C   0  0  0  0  0  0  0  0  0  0  0  0
    3.5309    3.4357    0.0000 O   0  0  0  0  0  0  0  0  0  0  0  0
    3.9916    0.8026    0.0000 N   0  0  0  0  0  0  0  0  0  0  0  0
    2.5727    0.3162    0.0000 C   0  0  0  0  0  0  0  0  0  0  0  0
    1.4419    1.3018    0.0000 C   0  0  0  0  0  0  0  0  0  0  0  0
    0.0230    0.8153    0.0000 C   0  0  0  0  0  0  0  0  0  0  0  0
   -1.1077    1.8009    0.0000 C   0  0  0  0  0  0  0  0  0  0  0  0
   -2.5267    1.3144    0.0000 N   0  0  0  0  0  0  0  0  0  0  0  0
   -3.6574    2.3000    0.0000 C   0  0  0  0  0  0  0  0  0  0  0  0
   -5.0764    1.8135    0.0000 C   0  0  0  0  0  0  0  0  0  0  0  0
   -5.3645    0.3415    0.0000 N   0  0  0  0  0  0  0  0  0  0  0  0
   -6.7834   -0.1450    0.0000 C   0  0  0  0  0  0  0  0  0  0  0  0
   -7.9142    0.8406    0.0000 C   0  0  0  0  0  0  0  0  0  0  0  0
   -9.3331    0.3541    0.0000 C   0  0  0  0  0  0  0  0  0  0  0  0
   -9.6213   -1.1180    0.0000 C   0  0  0  0  0  0  0  0  0  0  0  0
  -11.0402   -1.6044    0.0000 F   0  0  0  0  0  0  0  0  0  0  0  0
   -8.4905   -2.1036    0.0000 C   0  0  0  0  0  0  0  0  0  0  0  0
   -7.0716   -1.6171    0.0000 C   0  0  0  0  0  0  0  0  0  0  0  0
   -5.9409   -2.6027    0.0000 N   0  0  0  0  0  0  0  0  0  0  0  0
   -4.2338   -0.6441    0.0000 C   0  0  0  0  0  0  0  0  0  0  0  0
   -2.8148   -0.1577    0.0000 C   0  0  0  0  0  0  0  0  0  0  0  0
  1  2  1  0
  2  3  2  0
  2  4  1  0
  4  5  2  0
  5  6  1  0
  6  7  2  0
  7  8  1  0
  8  9  2  0
  8 10  1  0
 10 11  1  0
 11 12  2  0
 11 13  1  0
 13 14  1  0
 14 15  1  0
 15 16  1  0
 16 17  1  0
 17 18  1  0
 18 19  1  0
 19 20  1  0
 20 21  1  0
 21 22  1  0
 22 23  2  0
 23 24  1  0
 24 25  2  0
 25 26  1  0
 25 27  1  0
 27 28  2  0
 28 29  1  0
 21 30  1  0
 30 31  1  0
  9  4  1  0
 31 18  1  0
 13  7  1  0
 28 22  1  0
M  END
>  <Compound_Key>  (1262) 
CM764

>  <Ki>  (1262) 
3.5

>  <database>  (1262) 
NewLiterature

>  <Document_ChEMBL_ID>  (1262) 
10.1021/acs.jmedchem.0c02265

$$$$

     RDKit          2D

 30 33  0  0  0  0  0  0  0  0999 V2000
    4.4309   -4.5039    0.0000 O   0  0  0  0  0  0  0  0  0  0  0  0
    4.8344   -3.0592    0.0000 C   0  0  0  0  0  0  0  0  0  0  0  0
    6.2404   -2.5364    0.0000 O   0  0  0  0  0  0  0  0  0  0  0  0
    6.1777   -1.0377    0.0000 C   0  0  0  0  0  0  0  0  0  0  0  0
    7.2495    0.0117    0.0000 C   0  0  0  0  0  0  0  0  0  0  0  0
    6.8766    1.4646    0.0000 C   0  0  0  0  0  0  0  0  0  0  0  0
    7.9484    2.5140    0.0000 N   0  0  0  0  0  4  0  0  0  0  0  0
    7.5755    3.9669    0.0000 O   0  0  0  0  0  0  0  0  0  0  0  0
    9.3931    2.1104    0.0000 O   0  0  0  0  0  1  0  0  0  0  0  0
    5.4319    1.8681    0.0000 C   0  0  0  0  0  0  0  0  0  0  0  0
    4.3601    0.8187    0.0000 C   0  0  0  0  0  0  0  0  0  0  0  0
    4.7330   -0.6342    0.0000 C   0  0  0  0  0  0  0  0  0  0  0  0
    3.9028   -1.8835    0.0000 N   0  0  0  0  0  0  0  0  0  0  0  0
    2.4041   -1.9462    0.0000 C   0  0  0  0  0  0  0  0  0  0  0  0
    1.6005   -0.6796    0.0000 C   0  0  0  0  0  0  0  0  0  0  0  0
    0.1018   -0.7423    0.0000 C   0  0  0  0  0  0  0  0  0  0  0  0
   -0.7018    0.5243    0.0000 C   0  0  0  0  0  0  0  0  0  0  0  0
   -2.2005    0.4616    0.0000 N   0  0  0  0  0  0  0  0  0  0  0  0
   -3.0041    1.7282    0.0000 C   0  0  0  0  0  0  0  0  0  0  0  0
   -4.5028    1.6655    0.0000 C   0  0  0  0  0  0  0  0  0  0  0  0
   -5.1979    0.3362    0.0000 N   0  0  0  0  0  0  0  0  0  0  0  0
   -6.6966    0.2736    0.0000 C   0  0  0  0  0  0  0  0  0  0  0  0
   -7.5002    1.5401    0.0000 C   0  0  0  0  0  0  0  0  0  0  0  0
   -8.9989    1.4775    0.0000 C   0  0  0  0  0  0  0  0  0  0  0  0
   -9.6939    0.1482    0.0000 C   0  0  0  0  0  0  0  0  0  0  0  0
  -11.1926    0.0856    0.0000 F   0  0  0  0  0  0  0  0  0  0  0  0
   -8.8903   -1.1183    0.0000 C   0  0  0  0  0  0  0  0  0  0  0  0
   -7.3916   -1.0557    0.0000 C   0  0  0  0  0  0  0  0  0  0  0  0
   -4.3943   -0.9303    0.0000 C   0  0  0  0  0  0  0  0  0  0  0  0
   -2.8956   -0.8676    0.0000 C   0  0  0  0  0  0  0  0  0  0  0  0
  1  2  2  0
  2  3  1  0
  3  4  1  0
  4  5  2  0
  5  6  1  0
  6  7  1  0
  7  8  2  0
  7  9  1  0
  6 10  2  0
 10 11  1  0
 11 12  2  0
 12 13  1  0
 13 14  1  0
 14 15  1  0
 15 16  1  0
 16 17  1  0
 17 18  1  0
 18 19  1  0
 19 20  1  0
 20 21  1  0
 21 22  1  0
 22 23  2  0
 23 24  1  0
 24 25  2  0
 25 26  1  0
 25 27  1  0
 27 28  2  0
 21 29  1  0
 29 30  1  0
 13  2  1  0
 30 18  1  0
 12  4  1  0
 28 22  1  0
M  CHG  2   7   1   9  -1
M  END
>  <Compound_Key>  (1263) 
CM458

>  <Ki>  (1263) 
0.56

>  <database>  (1263) 
NewLiterature

>  <Document_ChEMBL_ID>  (1263) 
10.1021/acs.jmedchem.0c02265

$$$$

     RDKit          2D

 29 32  0  0  0  0  0  0  0  0999 V2000
    7.1938    2.7806    0.0000 C   0  0  0  0  0  0  0  0  0  0  0  0
    6.2723    1.5970    0.0000 N   0  0  0  0  0  0  0  0  0  0  0  0
    4.7731    1.6469    0.0000 C   0  0  0  0  0  0  0  0  0  0  0  0
    3.9322    2.8891    0.0000 O   0  0  0  0  0  0  0  0  0  0  0  0
    4.2624    0.2365    0.0000 N   0  0  0  0  0  0  0  0  0  0  0  0
    2.8212   -0.1793    0.0000 C   0  0  0  0  0  0  0  0  0  0  0  0
    1.7405    0.8609    0.0000 C   0  0  0  0  0  0  0  0  0  0  0  0
    0.2993    0.4450    0.0000 C   0  0  0  0  0  0  0  0  0  0  0  0
   -0.7815    1.4852    0.0000 C   0  0  0  0  0  0  0  0  0  0  0  0
   -2.2227    1.0694    0.0000 N   0  0  0  0  0  0  0  0  0  0  0  0
   -3.3034    2.1096    0.0000 C   0  0  0  0  0  0  0  0  0  0  0  0
   -4.7446    1.6937    0.0000 C   0  0  0  0  0  0  0  0  0  0  0  0
   -5.1051    0.2377    0.0000 N   0  0  0  0  0  0  0  0  0  0  0  0
   -6.5463   -0.1782    0.0000 C   0  0  0  0  0  0  0  0  0  0  0  0
   -7.6270    0.8620    0.0000 C   0  0  0  0  0  0  0  0  0  0  0  0
   -9.0682    0.4462    0.0000 C   0  0  0  0  0  0  0  0  0  0  0  0
   -9.4287   -1.0099    0.0000 C   0  0  0  0  0  0  0  0  0  0  0  0
  -10.8699   -1.4257    0.0000 F   0  0  0  0  0  0  0  0  0  0  0  0
   -8.3480   -2.0501    0.0000 C   0  0  0  0  0  0  0  0  0  0  0  0
   -6.9068   -1.6342    0.0000 C   0  0  0  0  0  0  0  0  0  0  0  0
   -4.0244   -0.8025    0.0000 C   0  0  0  0  0  0  0  0  0  0  0  0
   -2.5832   -0.3867    0.0000 C   0  0  0  0  0  0  0  0  0  0  0  0
    5.4459   -0.6850    0.0000 C   0  0  0  0  0  0  0  0  0  0  0  0
    5.5531   -2.1812    0.0000 C   0  0  0  0  0  0  0  0  0  0  0  0
    6.9023   -2.8365    0.0000 C   0  0  0  0  0  0  0  0  0  0  0  0
    8.1445   -1.9956    0.0000 C   0  0  0  0  0  0  0  0  0  0  0  0
    9.4938   -2.6510    0.0000 N   0  0  0  0  0  0  0  0  0  0  0  0
    8.0374   -0.4995    0.0000 C   0  0  0  0  0  0  0  0  0  0  0  0
    6.6881    0.1558    0.0000 C   0  0  0  0  0  0  0  0  0  0  0  0
  1  2  1  0
  2  3  1  0
  3  4  2  0
  3  5  1  0
  5  6  1  0
  6  7  1  0
  7  8  1  0
  8  9  1  0
  9 10  1  0
 10 11  1  0
 11 12  1  0
 12 13  1  0
 13 14  1  0
 14 15  2  0
 15 16  1  0
 16 17  2  0
 17 18  1  0
 17 19  1  0
 19 20  2  0
 13 21  1  0
 21 22  1  0
  5 23  1  0
 23 24  2  0
 24 25  1  0
 25 26  2  0
 26 27  1  0
 26 28  1  0
 28 29  2  0
 29  2  1  0
 22 10  1  0
 29 23  1  0
 20 14  1  0
M  END
>  <Compound_Key>  (1264) 
WA403

>  <Ki>  (1264) 
17.9

>  <database>  (1264) 
NewLiterature

>  <Document_ChEMBL_ID>  (1264) 
10.1021/acs.jmedchem.0c02265

$$$$

     RDKit          2D

 30 33  0  0  0  0  0  0  0  0999 V2000
    4.3664   -4.3849    0.0000 O   0  0  0  0  0  0  0  0  0  0  0  0
    4.7554   -2.9363    0.0000 C   0  0  0  0  0  0  0  0  0  0  0  0
    6.1560   -2.3994    0.0000 S   0  0  0  0  0  0  0  0  0  0  0  0
    6.0783   -0.9015    0.0000 C   0  0  0  0  0  0  0  0  0  0  0  0
    7.1396    0.1586    0.0000 C   0  0  0  0  0  0  0  0  0  0  0  0
    6.7521    1.6077    0.0000 C   0  0  0  0  0  0  0  0  0  0  0  0
    7.8133    2.6678    0.0000 N   0  0  0  0  0  0  0  0  0  0  0  0
    9.2620    2.2788    0.0000 C   0  0  0  0  0  0  0  0  0  0  0  0
   10.7107    1.8898    0.0000 S   0  0  0  0  0  0  0  0  0  0  0  0
    5.3034    1.9967    0.0000 C   0  0  0  0  0  0  0  0  0  0  0  0
    4.2422    0.9366    0.0000 C   0  0  0  0  0  0  0  0  0  0  0  0
    4.6297   -0.5125    0.0000 C   0  0  0  0  0  0  0  0  0  0  0  0
    3.8120   -1.7700    0.0000 N   0  0  0  0  0  0  0  0  0  0  0  0
    2.3140   -1.8477    0.0000 C   0  0  0  0  0  0  0  0  0  0  0  0
    1.4977   -0.5893    0.0000 C   0  0  0  0  0  0  0  0  0  0  0  0
   -0.0002   -0.6670    0.0000 C   0  0  0  0  0  0  0  0  0  0  0  0
   -0.8165    0.5914    0.0000 C   0  0  0  0  0  0  0  0  0  0  0  0
   -2.3145    0.5137    0.0000 N   0  0  0  0  0  0  0  0  0  0  0  0
   -3.1308    1.7722    0.0000 C   0  0  0  0  0  0  0  0  0  0  0  0
   -4.6288    1.6945    0.0000 C   0  0  0  0  0  0  0  0  0  0  0  0
   -5.3105    0.3583    0.0000 N   0  0  0  0  0  0  0  0  0  0  0  0
   -6.8085    0.2806    0.0000 C   0  0  0  0  0  0  0  0  0  0  0  0
   -7.6248    1.5390    0.0000 C   0  0  0  0  0  0  0  0  0  0  0  0
   -9.1227    1.4613    0.0000 C   0  0  0  0  0  0  0  0  0  0  0  0
   -9.8044    0.1252    0.0000 C   0  0  0  0  0  0  0  0  0  0  0  0
  -11.3024    0.0475    0.0000 F   0  0  0  0  0  0  0  0  0  0  0  0
   -8.9882   -1.1333    0.0000 C   0  0  0  0  0  0  0  0  0  0  0  0
   -7.4902   -1.0555    0.0000 C   0  0  0  0  0  0  0  0  0  0  0  0
   -4.4942   -0.9001    0.0000 C   0  0  0  0  0  0  0  0  0  0  0  0
   -2.9962   -0.8224    0.0000 C   0  0  0  0  0  0  0  0  0  0  0  0
  1  2  2  0
  2  3  1  0
  3  4  1  0
  4  5  2  0
  5  6  1  0
  6  7  1  0
  7  8  2  0
  8  9  2  0
  6 10  2  0
 10 11  1  0
 11 12  2  0
 12 13  1  0
 13 14  1  0
 14 15  1  0
 15 16  1  0
 16 17  1  0
 17 18  1  0
 18 19  1  0
 19 20  1  0
 20 21  1  0
 21 22  1  0
 22 23  2  0
 23 24  1  0
 24 25  2  0
 25 26  1  0
 25 27  1  0
 27 28  2  0
 21 29  1  0
 29 30  1  0
 13  2  1  0
 30 18  1  0
 12  4  1  0
 28 22  1  0
M  END
>  <Compound_Key>  (1265) 
WA435

>  <Ki>  (1265) 
2.0

>  <database>  (1265) 
NewLiterature

>  <Document_ChEMBL_ID>  (1265) 
10.1021/acs.jmedchem.0c02265

$$$$

     RDKit          2D

 32 36  0  0  0  0  0  0  0  0999 V2000
   -6.6335   -4.6820    0.0000 C   0  0  0  0  0  0  0  0  0  0  0  0
   -5.8394   -3.4095    0.0000 C   0  0  0  0  0  0  0  0  0  0  0  0
   -4.3403   -3.4609    0.0000 C   0  0  0  0  0  0  0  0  0  0  0  0
   -3.5462   -2.1883    0.0000 N   0  0  0  0  0  0  0  0  0  0  0  0
   -4.1090   -0.7979    0.0000 N   0  0  0  0  0  0  0  0  0  0  0  0
   -2.9606    0.1670    0.0000 C   0  0  0  0  0  0  0  0  0  0  0  0
   -3.0661    1.6633    0.0000 C   0  0  0  0  0  0  0  0  0  0  0  0
   -1.8231    2.5029    0.0000 O   0  0  0  0  0  0  0  0  0  0  0  0
   -4.4147    2.3200    0.0000 N   0  0  0  0  0  0  0  0  0  0  0  0
   -4.5203    3.8163    0.0000 C   0  0  0  0  0  0  0  0  0  0  0  0
   -5.8689    4.4730    0.0000 C   0  0  0  0  0  0  0  0  0  0  0  0
   -7.1119    3.6334    0.0000 C   0  0  0  0  0  0  0  0  0  0  0  0
   -7.0064    2.1371    0.0000 C   0  0  0  0  0  0  0  0  0  0  0  0
   -5.6578    1.4804    0.0000 C   0  0  0  0  0  0  0  0  0  0  0  0
   -1.6880   -0.6271    0.0000 C   0  0  0  0  0  0  0  0  0  0  0  0
   -2.0500   -2.0827    0.0000 C   0  0  0  0  0  0  0  0  0  0  0  0
   -0.9703   -3.1240    0.0000 C   0  0  0  0  0  0  0  0  0  0  0  0
    0.4713   -2.7097    0.0000 C   0  0  0  0  0  0  0  0  0  0  0  0
    0.8333   -1.2540    0.0000 C   0  0  0  0  0  0  0  0  0  0  0  0
    2.2749   -0.8396    0.0000 N   0  0  0  0  0  0  0  0  0  0  0  0
    3.3546   -1.8809    0.0000 C   0  0  0  0  0  0  0  0  0  0  0  0
    4.7962   -1.4666    0.0000 C   0  0  0  0  0  0  0  0  0  0  0  0
    5.1582   -0.0109    0.0000 C   0  0  0  0  0  0  0  0  0  0  0  0
    6.5998    0.4035    0.0000 C   0  0  0  0  0  0  0  0  0  0  0  0
    7.6795   -0.6379    0.0000 C   0  0  0  0  0  0  0  0  0  0  0  0
    9.1211   -0.2235    0.0000 C   0  0  0  0  0  0  0  0  0  0  0  0
    9.4831    1.2322    0.0000 N   0  0  0  0  0  0  0  0  0  0  0  0
    8.4034    2.2735    0.0000 C   0  0  0  0  0  0  0  0  0  0  0  0
    6.9618    1.8591    0.0000 C   0  0  0  0  0  0  0  0  0  0  0  0
    4.0785    1.0304    0.0000 C   0  0  0  0  0  0  0  0  0  0  0  0
    2.6369    0.6160    0.0000 C   0  0  0  0  0  0  0  0  0  0  0  0
   -0.2464   -0.2127    0.0000 C   0  0  0  0  0  0  0  0  0  0  0  0
  1  2  1  0
  2  3  1  0
  3  4  1  0
  4  5  1  0
  5  6  2  0
  6  7  1  0
  7  8  2  0
  7  9  1  0
  9 10  1  0
 10 11  1  0
 11 12  1  0
 12 13  1  0
 13 14  1  0
  6 15  1  0
 15 16  2  0
 16 17  1  0
 17 18  1  0
 18 19  1  0
 19 20  1  0
 20 21  1  0
 21 22  1  0
 22 23  1  0
 23 24  1  0
 24 25  2  0
 25 26  1  0
 26 27  2  0
 27 28  1  0
 28 29  2  0
 23 30  1  0
 30 31  1  0
 19 32  1  0
 16  4  1  0
 31 20  1  0
 14  9  1  0
 32 15  1  0
 29 24  1  0
M  END
>  <Compound_Key>  (1266) 
Cmpd.D

>  <Ki>  (1266) 
7.8

>  <database>  (1266) 
NewLiterature

>  <Document_ChEMBL_ID>  (1266) 
10.1021/acs.jmedchem.0c02265

$$$$

     RDKit          2D

 26 27  0  0  0  0  0  0  0  0999 V2000
   -8.6730   -0.9328    0.0000 C   0  0  0  0  0  0  0  0  0  0  0  0
   -7.2070   -1.2504    0.0000 C   0  0  0  0  0  0  0  0  0  0  0  0
   -6.1989   -0.1396    0.0000 C   0  0  0  0  0  0  0  0  0  0  0  0
   -4.7329   -0.4572    0.0000 N   0  0  0  0  0  0  0  0  0  0  0  0
   -4.2750   -1.8856    0.0000 C   0  0  0  0  0  0  0  0  0  0  0  0
   -5.2830   -2.9964    0.0000 C   0  0  0  0  0  0  0  0  0  0  0  0
   -4.8251   -4.4248    0.0000 C   0  0  0  0  0  0  0  0  0  0  0  0
   -3.7249    0.6536    0.0000 C   0  0  0  0  0  0  0  0  0  0  0  0
   -2.2589    0.3360    0.0000 C   0  0  0  0  0  0  0  0  0  0  0  0
   -1.2509    1.4468    0.0000 C   0  0  0  0  0  0  0  0  0  0  0  0
   -1.7088    2.8752    0.0000 C   0  0  0  0  0  0  0  0  0  0  0  0
   -0.7008    3.9860    0.0000 C   0  0  0  0  0  0  0  0  0  0  0  0
    0.7652    3.6684    0.0000 C   0  0  0  0  0  0  0  0  0  0  0  0
    1.7732    4.7792    0.0000 O   0  0  0  0  0  0  0  0  0  0  0  0
    3.2392    4.4616    0.0000 C   0  0  0  0  0  0  0  0  0  0  0  0
    1.2231    2.2400    0.0000 C   0  0  0  0  0  0  0  0  0  0  0  0
    2.6891    1.9224    0.0000 O   0  0  0  0  0  0  0  0  0  0  0  0
    3.1471    0.4940    0.0000 C   0  0  0  0  0  0  0  0  0  0  0  0
    4.6131    0.1764    0.0000 C   0  0  0  0  0  0  0  0  0  0  0  0
    5.0711   -1.2519    0.0000 C   0  0  0  0  0  0  0  0  0  0  0  0
    4.0630   -2.3627    0.0000 C   0  0  0  0  0  0  0  0  0  0  0  0
    4.5210   -3.7911    0.0000 C   0  0  0  0  0  0  0  0  0  0  0  0
    5.9870   -4.1087    0.0000 C   0  0  0  0  0  0  0  0  0  0  0  0
    6.9950   -2.9979    0.0000 C   0  0  0  0  0  0  0  0  0  0  0  0
    6.5370   -1.5695    0.0000 C   0  0  0  0  0  0  0  0  0  0  0  0
    0.2151    1.1292    0.0000 C   0  0  0  0  0  0  0  0  0  0  0  0
  1  2  1  0
  2  3  1  0
  3  4  1  0
  4  5  1  0
  5  6  1  0
  6  7  1  0
  4  8  1  0
  8  9  1  0
  9 10  1  0
 10 11  2  0
 11 12  1  0
 12 13  2  0
 13 14  1  0
 14 15  1  0
 13 16  1  0
 16 17  1  0
 17 18  1  0
 18 19  1  0
 19 20  1  0
 20 21  2  0
 21 22  1  0
 22 23  2  0
 23 24  1  0
 24 25  2  0
 16 26  2  0
 26 10  1  0
 25 20  1  0
M  END
>  <ChemBL_ID>  (1267) 
CHEMBL190883

>  <Compound_Key>  (1267) 
5,NE-100

>  <Ki>  (1267) 
170.0

>  <database>  (1267) 
CHEMBL

>  <Assay_ChEMBL_ID>  (1267) 
CHEMBL860171

>  <Document_ChEMBL_ID>  (1267) 
CHEMBL1141188

$$$$

     RDKit          2D

 23 27  0  0  0  0  0  0  0  0999 V2000
   -5.3296   -2.7486    0.0000 C   0  0  0  0  0  0  0  0  0  0  0  0
   -3.9670   -2.1215    0.0000 C   0  0  0  0  0  0  0  0  0  0  0  0
   -3.8288   -0.6279    0.0000 C   0  0  0  0  0  0  0  0  0  0  0  0
   -5.0533    0.2386    0.0000 C   0  0  0  0  0  0  0  0  0  0  0  0
   -4.9151    1.7322    0.0000 C   0  0  0  0  0  0  0  0  0  0  0  0
   -4.3566    0.3401    0.0000 C   0  0  0  0  0  0  0  0  0  0  0  0
   -1.3846   -1.0400    0.0000 C   0  0  0  0  0  0  0  0  0  0  0  0
    0.1023   -0.8424    0.0000 C   0  0  0  0  0  0  0  0  0  0  0  0
    1.0864   -1.9744    0.0000 N   0  0  0  0  0  0  0  0  0  0  0  0
    2.4671   -1.3883    0.0000 C   0  0  0  0  0  0  0  0  0  0  0  0
    3.8266   -2.0223    0.0000 C   0  0  0  0  0  0  0  0  0  0  0  0
    5.0553   -1.1619    0.0000 C   0  0  0  0  0  0  0  0  0  0  0  0
    4.9246    0.3324    0.0000 C   0  0  0  0  0  0  0  0  0  0  0  0
    6.1533    1.1927    0.0000 O   0  0  0  0  0  0  0  0  0  0  0  0
    7.5128    0.5588    0.0000 C   0  0  0  0  0  0  0  0  0  0  0  0
    3.5651    0.9663    0.0000 C   0  0  0  0  0  0  0  0  0  0  0  0
    2.3364    0.1059    0.0000 C   0  0  0  0  0  0  0  0  0  0  0  0
    0.8748    0.4434    0.0000 C   0  0  0  0  0  0  0  0  0  0  0  0
    0.3513    1.8490    0.0000 C   0  0  0  0  0  0  0  0  0  0  0  0
   -1.0741    2.3161    0.0000 C   0  0  0  0  0  0  0  0  0  0  0  0
   -2.3281    1.4929    0.0000 N   0  0  0  0  0  0  0  0  0  0  0  0
   -3.5525    2.3594    0.0000 C   0  0  0  0  0  0  0  0  0  0  0  0
   -2.4662   -0.0007    0.0000 C   0  0  0  0  0  0  0  0  0  0  0  0
  1  2  1  0
  3  2  1  1
  3  4  1  0
  5  4  1  1
  5  6  1  0
  6  7  1  0
  7  8  1  6
  8  9  1  0
  9 10  1  0
 10 11  2  0
 11 12  1  0
 12 13  2  0
 13 14  1  0
 14 15  1  0
 13 16  1  0
 16 17  2  0
 17 18  1  0
 18 19  1  0
 19 20  1  0
 20 21  1  0
 21 22  1  0
 23 21  1  6
 23  3  1  0
 22  5  1  0
 23  7  1  0
 18  8  2  0
 17 10  1  0
M  END
>  <ChemBL_ID>  (1268) 
CHEMBL222287

>  <Compound_Key>  (1268) 
Ibogaine (13)

>  <Ki>  (1268) 
201.0

>  <database>  (1268) 
SRSLDB

>  <Document_ChEMBL_ID>  (1268) 
10.1016/j.bioorg.2021.105163

$$$$

     RDKit          2D

 31 32  0  0  0  0  0  0  0  0999 V2000
  -12.2427   -0.0007    0.0000 C   0  0  0  0  0  0  0  0  0  0  0  0
  -11.0155   -0.8632    0.0000 O   0  0  0  0  0  0  0  0  0  0  0  0
   -9.6549   -0.2316    0.0000 C   0  0  0  0  0  0  0  0  0  0  0  0
   -9.5216    1.2625    0.0000 C   0  0  0  0  0  0  0  0  0  0  0  0
   -8.1611    1.8940    0.0000 C   0  0  0  0  0  0  0  0  0  0  0  0
   -6.9338    1.0316    0.0000 C   0  0  0  0  0  0  0  0  0  0  0  0
   -5.5733    1.6632    0.0000 C   0  0  0  0  0  0  0  0  0  0  0  0
   -4.3460    0.8007    0.0000 C   0  0  0  0  0  0  0  0  0  0  0  0
   -2.9855    1.4323    0.0000 N   0  0  0  0  0  0  0  0  0  0  0  0
   -1.7582    0.5698    0.0000 C   0  0  0  0  0  0  0  0  0  0  0  0
   -0.3977    1.2014    0.0000 C   0  0  0  0  0  0  0  0  0  0  0  0
    0.8296    0.3389    0.0000 C   0  0  0  0  0  0  0  0  0  0  0  0
    2.1901    0.9705    0.0000 C   0  0  0  0  0  0  0  0  0  0  0  0
    3.4174    0.1080    0.0000 N   0  0  0  0  0  0  0  0  0  0  0  0
    4.7779    0.7396    0.0000 C   0  0  0  0  0  0  0  0  0  0  0  0
    4.9112    2.2337    0.0000 O   0  0  0  0  0  0  0  0  0  0  0  0
    6.0052   -0.1229    0.0000 C   0  0  0  0  0  0  0  0  0  0  0  0
    5.8719   -1.6169    0.0000 C   0  0  0  0  0  0  0  0  0  0  0  0
    7.0991   -2.4794    0.0000 C   0  0  0  0  0  0  0  0  0  0  0  0
    6.9658   -3.9735    0.0000 Br  0  0  0  0  0  0  0  0  0  0  0  0
    8.4597   -1.8478    0.0000 C   0  0  0  0  0  0  0  0  0  0  0  0
    8.5930   -0.3538    0.0000 C   0  0  0  0  0  0  0  0  0  0  0  0
    9.9535    0.2778    0.0000 O   0  0  0  0  0  0  0  0  0  0  0  0
   11.1808   -0.5846    0.0000 C   0  0  0  0  0  0  0  0  0  0  0  0
    7.3657    0.5087    0.0000 C   0  0  0  0  0  0  0  0  0  0  0  0
    7.4990    2.0028    0.0000 O   0  0  0  0  0  0  0  0  0  0  0  0
    8.8596    2.6344    0.0000 C   0  0  0  0  0  0  0  0  0  0  0  0
   -7.0671   -0.4625    0.0000 C   0  0  0  0  0  0  0  0  0  0  0  0
   -8.4277   -1.0941    0.0000 C   0  0  0  0  0  0  0  0  0  0  0  0
   -8.5610   -2.5881    0.0000 O   0  0  0  0  0  0  0  0  0  0  0  0
   -7.3337   -3.4506    0.0000 C   0  0  0  0  0  0  0  0  0  0  0  0
  1  2  1  0
  2  3  1  0
  3  4  2  0
  4  5  1  0
  5  6  2  0
  6  7  1  0
  7  8  1  0
  8  9  1  0
  9 10  1  0
 10 11  1  0
 11 12  1  0
 12 13  1  0
 13 14  1  0
 14 15  1  0
 15 16  2  0
 15 17  1  0
 17 18  2  0
 18 19  1  0
 19 20  1  0
 19 21  2  0
 21 22  1  0
 22 23  1  0
 23 24  1  0
 22 25  2  0
 25 26  1  0
 26 27  1  0
  6 28  1  0
 28 29  2  0
 29 30  1  0
 30 31  1  0
 29  3  1  0
 25 17  1  0
M  END
>  <Compound_Key>  (1269) 
64

>  <Ki>  (1269) 
4616.0

>  <database>  (1269) 
NewLiterature

>  <Document_ChEMBL_ID>  (1269) 
10.1021/acs.jmedchem.0c02265

$$$$

     RDKit          2D

 30 33  0  0  0  0  0  0  0  0999 V2000
    9.3861   -3.2751    0.0000 C   0  0  0  0  0  0  0  0  0  0  0  0
    9.1856   -1.7885    0.0000 C   0  0  0  0  0  0  0  0  0  0  0  0
   10.3727   -0.8716    0.0000 O   0  0  0  0  0  0  0  0  0  0  0  0
    7.7979   -1.2189    0.0000 C   0  0  0  0  0  0  0  0  0  0  0  0
    6.6108   -2.1358    0.0000 C   0  0  0  0  0  0  0  0  0  0  0  0
    5.2232   -1.5662    0.0000 C   0  0  0  0  0  0  0  0  0  0  0  0
    5.0227   -0.0797    0.0000 C   0  0  0  0  0  0  0  0  0  0  0  0
    6.2098    0.8372    0.0000 C   0  0  0  0  0  0  0  0  0  0  0  0
    7.5974    0.2676    0.0000 C   0  0  0  0  0  0  0  0  0  0  0  0
    5.7046    2.2496    0.0000 O   0  0  0  0  0  0  0  0  0  0  0  0
    4.2052    2.2056    0.0000 C   0  0  0  0  0  0  0  0  0  0  0  0
    3.2883    3.3927    0.0000 O   0  0  0  0  0  0  0  0  0  0  0  0
    3.7838    0.7660    0.0000 N   0  0  0  0  0  0  0  0  0  0  0  0
    2.3714    0.2608    0.0000 C   0  0  0  0  0  0  0  0  0  0  0  0
    1.2277    1.2313    0.0000 C   0  0  0  0  0  0  0  0  0  0  0  0
   -0.1846    0.7261    0.0000 C   0  0  0  0  0  0  0  0  0  0  0  0
   -1.3283    1.6967    0.0000 C   0  0  0  0  0  0  0  0  0  0  0  0
   -2.7407    1.1915    0.0000 N   0  0  0  0  0  0  0  0  0  0  0  0
   -3.8844    2.1620    0.0000 C   0  0  0  0  0  0  0  0  0  0  0  0
   -5.2968    1.6568    0.0000 C   0  0  0  0  0  0  0  0  0  0  0  0
   -5.5654    0.1811    0.0000 N   0  0  0  0  0  0  0  0  0  0  0  0
   -6.9778   -0.3241    0.0000 C   0  0  0  0  0  0  0  0  0  0  0  0
   -8.1215    0.6464    0.0000 C   0  0  0  0  0  0  0  0  0  0  0  0
   -9.5339    0.1412    0.0000 C   0  0  0  0  0  0  0  0  0  0  0  0
   -9.8025   -1.3345    0.0000 C   0  0  0  0  0  0  0  0  0  0  0  0
  -11.2149   -1.8397    0.0000 F   0  0  0  0  0  0  0  0  0  0  0  0
   -8.6588   -2.3050    0.0000 C   0  0  0  0  0  0  0  0  0  0  0  0
   -7.2465   -1.7998    0.0000 C   0  0  0  0  0  0  0  0  0  0  0  0
   -4.4217   -0.7895    0.0000 C   0  0  0  0  0  0  0  0  0  0  0  0
   -3.0094   -0.2843    0.0000 C   0  0  0  0  0  0  0  0  0  0  0  0
  1  2  1  0
  2  3  2  0
  2  4  1  0
  4  5  2  0
  5  6  1  0
  6  7  2  0
  7  8  1  0
  8  9  2  0
  8 10  1  0
 10 11  1  0
 11 12  2  0
 11 13  1  0
 13 14  1  0
 14 15  1  0
 15 16  1  0
 16 17  1  0
 17 18  1  0
 18 19  1  0
 19 20  1  0
 20 21  1  0
 21 22  1  0
 22 23  2  0
 23 24  1  0
 24 25  2  0
 25 26  1  0
 25 27  1  0
 27 28  2  0
 21 29  1  0
 29 30  1  0
  9  4  1  0
 30 18  1  0
 13  7  1  0
 28 22  1  0
M  END
>  <ChemBL_ID>  (1270) 
CHEMBL3235465

>  <Compound_Key>  (1270) 
SN79 (23)

>  <Ki>  (1270) 
6.89

>  <database>  (1270) 
SRSLDB

>  <Document_ChEMBL_ID>  (1270) 
10.1016/j.bioorg.2021.105163

$$$$

     RDKit          2D

 32 35  0  0  0  0  0  0  0  0999 V2000
  -10.0065   -0.2586    0.0000 C   0  0  0  0  0  0  0  0  0  0  0  0
   -8.8881   -1.2581    0.0000 O   0  0  0  0  0  0  0  0  0  0  0  0
   -7.4632   -0.7892    0.0000 C   0  0  0  0  0  0  0  0  0  0  0  0
   -7.1569    0.6792    0.0000 C   0  0  0  0  0  0  0  0  0  0  0  0
   -5.7320    1.1480    0.0000 C   0  0  0  0  0  0  0  0  0  0  0  0
   -4.6135    0.1485    0.0000 C   0  0  0  0  0  0  0  0  0  0  0  0
   -4.9199   -1.3199    0.0000 C   0  0  0  0  0  0  0  0  0  0  0  0
   -6.3447   -1.7887    0.0000 C   0  0  0  0  0  0  0  0  0  0  0  0
   -6.6511   -3.2571    0.0000 O   0  0  0  0  0  0  0  0  0  0  0  0
   -5.5326   -4.2566    0.0000 C   0  0  0  0  0  0  0  0  0  0  0  0
   -3.1887    0.6174    0.0000 C   0  0  0  0  0  0  0  0  0  0  0  0
   -2.8824    2.0858    0.0000 N   0  0  0  0  0  0  0  0  0  0  0  0
   -1.4575    2.5547    0.0000 C   0  0  0  0  0  0  0  0  0  0  0  0
   -0.3390    1.5552    0.0000 C   0  0  0  0  0  0  0  0  0  0  0  0
    1.0858    2.0240    0.0000 C   0  0  0  0  0  0  0  0  0  0  0  0
    2.2043    1.0245    0.0000 N   0  0  0  0  0  0  0  0  0  0  0  0
    1.8979   -0.4439    0.0000 C   0  0  0  0  0  0  0  0  0  0  0  0
    3.0164   -1.4434    0.0000 N   0  0  0  0  0  0  0  0  0  0  0  0
    4.4412   -0.9745    0.0000 C   0  0  0  0  0  0  0  0  0  0  0  0
    5.5597   -1.9740    0.0000 C   0  0  0  0  0  0  0  0  0  0  0  0
    6.9845   -1.5051    0.0000 C   0  0  0  0  0  0  0  0  0  0  0  0
    8.1030   -2.5046    0.0000 O   0  0  0  0  0  0  0  0  0  0  0  0
    7.7966   -3.9730    0.0000 C   0  0  0  0  0  0  0  0  0  0  0  0
    7.2909   -0.0367    0.0000 C   0  0  0  0  0  0  0  0  0  0  0  0
    8.7157    0.4321    0.0000 O   0  0  0  0  0  0  0  0  0  0  0  0
    9.0221    1.9005    0.0000 C   0  0  0  0  0  0  0  0  0  0  0  0
    6.1724    0.9628    0.0000 C   0  0  0  0  0  0  0  0  0  0  0  0
    4.7476    0.4939    0.0000 C   0  0  0  0  0  0  0  0  0  0  0  0
    3.6291    1.4934    0.0000 C   0  0  0  0  0  0  0  0  0  0  0  0
    3.9355    2.9618    0.0000 O   0  0  0  0  0  0  0  0  0  0  0  0
   -4.0008    3.0853    0.0000 C   0  0  0  0  0  0  0  0  0  0  0  0
   -5.4257    2.6164    0.0000 C   0  0  0  0  0  0  0  0  0  0  0  0
  1  2  1  0
  2  3  1  0
  3  4  2  0
  4  5  1  0
  5  6  2  0
  6  7  1  0
  7  8  2  0
  8  9  1  0
  9 10  1  0
  6 11  1  0
 11 12  1  0
 12 13  1  0
 13 14  1  0
 14 15  1  0
 15 16  1  0
 16 17  1  0
 17 18  2  0
 18 19  1  0
 19 20  2  0
 20 21  1  0
 21 22  1  0
 22 23  1  0
 21 24  2  0
 24 25  1  0
 25 26  1  0
 24 27  1  0
 27 28  2  0
 28 29  1  0
 29 30  2  0
 12 31  1  0
 31 32  1  0
  8  3  1  0
 29 16  1  0
 32  5  1  0
 28 19  1  0
M  END
>  <Compound_Key>  (1271) 
67

>  <Ki>  (1271) 
13.9

>  <database>  (1271) 
NewLiterature

>  <Document_ChEMBL_ID>  (1271) 
10.1021/acs.jmedchem.0c02265

$$$$

     RDKit          2D

 36 38  0  0  0  0  0  0  0  0999 V2000
  -11.5292    0.5003    0.0000 C   0  0  0  0  0  0  0  0  0  0  0  0
  -10.5766   -0.6583    0.0000 O   0  0  0  0  0  0  0  0  0  0  0  0
   -9.0969   -0.4127    0.0000 C   0  0  0  0  0  0  0  0  0  0  0  0
   -8.5697    0.9916    0.0000 C   0  0  0  0  0  0  0  0  0  0  0  0
   -7.0900    1.2372    0.0000 C   0  0  0  0  0  0  0  0  0  0  0  0
   -6.1374    0.0786    0.0000 C   0  0  0  0  0  0  0  0  0  0  0  0
   -6.6645   -1.3258    0.0000 C   0  0  0  0  0  0  0  0  0  0  0  0
   -8.1443   -1.5714    0.0000 C   0  0  0  0  0  0  0  0  0  0  0  0
   -8.6714   -2.9757    0.0000 O   0  0  0  0  0  0  0  0  0  0  0  0
   -7.7188   -4.1344    0.0000 C   0  0  0  0  0  0  0  0  0  0  0  0
   -4.6576    0.3242    0.0000 C   0  0  0  0  0  0  0  0  0  0  0  0
   -4.1305    1.7285    0.0000 N   0  0  0  0  0  0  0  0  0  0  0  0
   -2.6507    1.9741    0.0000 C   0  0  0  0  0  0  0  0  0  0  0  0
   -1.6981    0.8155    0.0000 C   0  0  0  0  0  0  0  0  0  0  0  0
   -0.2184    1.0611    0.0000 C   0  0  0  0  0  0  0  0  0  0  0  0
    0.7342   -0.0976    0.0000 C   0  0  0  0  0  0  0  0  0  0  0  0
    2.2140    0.1480    0.0000 C   0  0  0  0  0  0  0  0  0  0  0  0
    3.1666   -1.0106    0.0000 C   0  0  0  0  0  0  0  0  0  0  0  0
    2.6394   -2.4150    0.0000 O   0  0  0  0  0  0  0  0  0  0  0  0
    4.6463   -0.7650    0.0000 C   0  0  0  0  0  0  0  0  0  0  0  0
    5.5989   -1.9237    0.0000 C   0  0  0  0  0  0  0  0  0  0  0  0
    5.0718   -3.3280    0.0000 C   0  0  0  0  0  0  0  0  0  0  0  0
    7.0787   -1.6781    0.0000 C   0  0  0  0  0  0  0  0  0  0  0  0
    8.0313   -2.8367    0.0000 O   0  0  0  0  0  0  0  0  0  0  0  0
    9.5110   -2.5911    0.0000 C   0  0  0  0  0  0  0  0  0  0  0  0
    7.6058   -0.2737    0.0000 C   0  0  0  0  0  0  0  0  0  0  0  0
    9.0856   -0.0281    0.0000 O   0  0  0  0  0  0  0  0  0  0  0  0
    9.6127    1.3762    0.0000 C   0  0  0  0  0  0  0  0  0  0  0  0
    6.6532    0.8849    0.0000 C   0  0  0  0  0  0  0  0  0  0  0  0
    7.1804    2.2893    0.0000 O   0  0  0  0  0  0  0  0  0  0  0  0
    6.2278    3.4480    0.0000 C   0  0  0  0  0  0  0  0  0  0  0  0
    5.1735    0.6393    0.0000 C   0  0  0  0  0  0  0  0  0  0  0  0
    4.2209    1.7980    0.0000 O   0  0  0  0  0  0  0  0  0  0  0  0
    4.7480    3.2023    0.0000 C   0  0  0  0  0  0  0  0  0  0  0  0
   -5.0831    2.8872    0.0000 C   0  0  0  0  0  0  0  0  0  0  0  0
   -6.5628    2.6416    0.0000 C   0  0  0  0  0  0  0  0  0  0  0  0
  1  2  1  0
  2  3  1  0
  3  4  2  0
  4  5  1  0
  5  6  2  0
  6  7  1  0
  7  8  2  0
  8  9  1  0
  9 10  1  0
  6 11  1  0
 11 12  1  0
 12 13  1  0
 13 14  1  0
 14 15  1  0
 15 16  1  0
 16 17  1  0
 17 18  1  0
 18 19  2  0
 18 20  1  0
 20 21  2  0
 21 22  1  0
 21 23  1  0
 23 24  1  0
 24 25  1  0
 23 26  2  0
 26 27  1  0
 27 28  1  0
 26 29  1  0
 29 30  1  0
 30 31  1  0
 29 32  2  0
 32 33  1  0
 33 34  1  0
 12 35  1  0
 35 36  1  0
  8  3  1  0
 32 20  1  0
 36  5  1  0
M  END
>  <Compound_Key>  (1272) 
68

>  <Ki>  (1272) 
0.38

>  <database>  (1272) 
NewLiterature

>  <Document_ChEMBL_ID>  (1272) 
10.1021/acs.jmedchem.0c02265

$$$$

     RDKit          2D

 38 40  0  0  0  0  0  0  0  0999 V2000
   -9.4846    3.6870    0.0000 C   0  0  0  0  0  0  0  0  0  0  0  0
   -9.7728    2.2150    0.0000 O   0  0  0  0  0  0  0  0  0  0  0  0
   -8.6420    1.2293    0.0000 C   0  0  0  0  0  0  0  0  0  0  0  0
   -7.2231    1.7158    0.0000 C   0  0  0  0  0  0  0  0  0  0  0  0
   -6.0924    0.7302    0.0000 C   0  0  0  0  0  0  0  0  0  0  0  0
   -6.3806   -0.7419    0.0000 C   0  0  0  0  0  0  0  0  0  0  0  0
   -7.7995   -1.2283    0.0000 C   0  0  0  0  0  0  0  0  0  0  0  0
   -8.0877   -2.7004    0.0000 O   0  0  0  0  0  0  0  0  0  0  0  0
   -9.5066   -3.1868    0.0000 C   0  0  0  0  0  0  0  0  0  0  0  0
   -8.9302   -0.2427    0.0000 C   0  0  0  0  0  0  0  0  0  0  0  0
  -10.3492   -0.7292    0.0000 O   0  0  0  0  0  0  0  0  0  0  0  0
  -11.4799    0.2565    0.0000 C   0  0  0  0  0  0  0  0  0  0  0  0
   -5.2498   -1.7275    0.0000 C   0  0  0  0  0  0  0  0  0  0  0  0
   -3.8309   -1.2410    0.0000 C   0  0  0  0  0  0  0  0  0  0  0  0
   -3.5427    0.2310    0.0000 N   0  0  0  0  0  0  0  0  0  0  0  0
   -2.1238    0.7175    0.0000 C   0  0  0  0  0  0  0  0  0  0  0  0
   -0.9930   -0.2682    0.0000 C   0  0  0  0  0  0  0  0  0  0  0  0
    0.4259    0.2183    0.0000 C   0  0  0  0  0  0  0  0  0  0  0  0
    1.5567   -0.7673    0.0000 C   0  0  0  0  0  0  0  0  0  0  0  0
    2.9756   -0.2809    0.0000 C   0  0  0  0  0  0  0  0  0  0  0  0
    4.1063   -1.2665    0.0000 C   0  0  0  0  0  0  0  0  0  0  0  0
    3.8181   -2.7385    0.0000 O   0  0  0  0  0  0  0  0  0  0  0  0
    5.5253   -0.7800    0.0000 C   0  0  0  0  0  0  0  0  0  0  0  0
    6.6560   -1.7657    0.0000 C   0  0  0  0  0  0  0  0  0  0  0  0
    6.3678   -3.2377    0.0000 C   0  0  0  0  0  0  0  0  0  0  0  0
    8.0749   -1.2792    0.0000 C   0  0  0  0  0  0  0  0  0  0  0  0
    9.2057   -2.2648    0.0000 O   0  0  0  0  0  0  0  0  0  0  0  0
   10.6246   -1.7784    0.0000 C   0  0  0  0  0  0  0  0  0  0  0  0
    8.3631    0.1928    0.0000 C   0  0  0  0  0  0  0  0  0  0  0  0
    9.7821    0.6793    0.0000 O   0  0  0  0  0  0  0  0  0  0  0  0
   10.0703    2.1513    0.0000 C   0  0  0  0  0  0  0  0  0  0  0  0
    7.2324    1.1785    0.0000 C   0  0  0  0  0  0  0  0  0  0  0  0
    7.5206    2.6505    0.0000 O   0  0  0  0  0  0  0  0  0  0  0  0
    6.3898    3.6361    0.0000 C   0  0  0  0  0  0  0  0  0  0  0  0
    5.8135    0.6920    0.0000 C   0  0  0  0  0  0  0  0  0  0  0  0
    4.6827    1.6776    0.0000 O   0  0  0  0  0  0  0  0  0  0  0  0
    4.9709    3.1497    0.0000 C   0  0  0  0  0  0  0  0  0  0  0  0
   -4.6734    1.2166    0.0000 C   0  0  0  0  0  0  0  0  0  0  0  0
  1  2  1  0
  2  3  1  0
  3  4  2  0
  4  5  1  0
  5  6  2  0
  6  7  1  0
  7  8  1  0
  8  9  1  0
  7 10  2  0
 10 11  1  0
 11 12  1  0
  6 13  1  0
 13 14  1  0
 14 15  1  0
 15 16  1  0
 16 17  1  0
 17 18  1  0
 18 19  1  0
 19 20  1  0
 20 21  1  0
 21 22  2  0
 21 23  1  0
 23 24  2  0
 24 25  1  0
 24 26  1  0
 26 27  1  0
 27 28  1  0
 26 29  2  0
 29 30  1  0
 30 31  1  0
 29 32  1  0
 32 33  1  0
 33 34  1  0
 32 35  2  0
 35 36  1  0
 36 37  1  0
 15 38  1  0
 10  3  1  0
 35 23  1  0
 38  5  1  0
M  END
>  <Compound_Key>  (1273) 
69

>  <Ki>  (1273) 
19.67

>  <database>  (1273) 
NewLiterature

>  <Document_ChEMBL_ID>  (1273) 
10.1021/acs.jmedchem.0c02265

$$$$

     RDKit          2D

 38 40  0  0  0  0  0  0  0  0999 V2000
  -11.1322    0.9098    0.0000 C   0  0  0  0  0  0  0  0  0  0  0  0
  -10.2075   -0.2713    0.0000 O   0  0  0  0  0  0  0  0  0  0  0  0
   -8.7223   -0.0610    0.0000 C   0  0  0  0  0  0  0  0  0  0  0  0
   -8.1618    1.3303    0.0000 C   0  0  0  0  0  0  0  0  0  0  0  0
   -6.6766    1.5406    0.0000 C   0  0  0  0  0  0  0  0  0  0  0  0
   -5.7519    0.3595    0.0000 C   0  0  0  0  0  0  0  0  0  0  0  0
   -6.3124   -1.0318    0.0000 C   0  0  0  0  0  0  0  0  0  0  0  0
   -5.3877   -2.2129    0.0000 O   0  0  0  0  0  0  0  0  0  0  0  0
   -5.9482   -3.6042    0.0000 C   0  0  0  0  0  0  0  0  0  0  0  0
   -7.7976   -1.2421    0.0000 C   0  0  0  0  0  0  0  0  0  0  0  0
   -8.3581   -2.6334    0.0000 O   0  0  0  0  0  0  0  0  0  0  0  0
   -9.8433   -2.8437    0.0000 C   0  0  0  0  0  0  0  0  0  0  0  0
   -4.2667    0.5698    0.0000 C   0  0  0  0  0  0  0  0  0  0  0  0
   -3.7062    1.9612    0.0000 N   0  0  0  0  0  0  0  0  0  0  0  0
   -2.2211    2.1714    0.0000 C   0  0  0  0  0  0  0  0  0  0  0  0
   -1.2964    0.9904    0.0000 C   0  0  0  0  0  0  0  0  0  0  0  0
    0.1888    1.2006    0.0000 C   0  0  0  0  0  0  0  0  0  0  0  0
    1.1135    0.0195    0.0000 C   0  0  0  0  0  0  0  0  0  0  0  0
    2.5987    0.2298    0.0000 C   0  0  0  0  0  0  0  0  0  0  0  0
    3.5234   -0.9513    0.0000 C   0  0  0  0  0  0  0  0  0  0  0  0
    2.9629   -2.3426    0.0000 O   0  0  0  0  0  0  0  0  0  0  0  0
    5.0086   -0.7410    0.0000 C   0  0  0  0  0  0  0  0  0  0  0  0
    5.9333   -1.9221    0.0000 C   0  0  0  0  0  0  0  0  0  0  0  0
    5.3728   -3.3134    0.0000 C   0  0  0  0  0  0  0  0  0  0  0  0
    7.4185   -1.7118    0.0000 C   0  0  0  0  0  0  0  0  0  0  0  0
    8.3432   -2.8929    0.0000 O   0  0  0  0  0  0  0  0  0  0  0  0
    9.8284   -2.6826    0.0000 C   0  0  0  0  0  0  0  0  0  0  0  0
    7.9790   -0.3204    0.0000 C   0  0  0  0  0  0  0  0  0  0  0  0
    9.4642   -0.1102    0.0000 O   0  0  0  0  0  0  0  0  0  0  0  0
   10.0247    1.2812    0.0000 C   0  0  0  0  0  0  0  0  0  0  0  0
    7.0543    0.8606    0.0000 C   0  0  0  0  0  0  0  0  0  0  0  0
    7.6148    2.2520    0.0000 O   0  0  0  0  0  0  0  0  0  0  0  0
    6.6901    3.4331    0.0000 C   0  0  0  0  0  0  0  0  0  0  0  0
    5.5691    0.6504    0.0000 C   0  0  0  0  0  0  0  0  0  0  0  0
    4.6444    1.8314    0.0000 O   0  0  0  0  0  0  0  0  0  0  0  0
    5.2049    3.2228    0.0000 C   0  0  0  0  0  0  0  0  0  0  0  0
   -4.6309    3.1422    0.0000 C   0  0  0  0  0  0  0  0  0  0  0  0
   -6.1161    2.9320    0.0000 C   0  0  0  0  0  0  0  0  0  0  0  0
  1  2  1  0
  2  3  1  0
  3  4  2  0
  4  5  1  0
  5  6  2  0
  6  7  1  0
  7  8  1  0
  8  9  1  0
  7 10  2  0
 10 11  1  0
 11 12  1  0
  6 13  1  0
 13 14  1  0
 14 15  1  0
 15 16  1  0
 16 17  1  0
 17 18  1  0
 18 19  1  0
 19 20  1  0
 20 21  2  0
 20 22  1  0
 22 23  2  0
 23 24  1  0
 23 25  1  0
 25 26  1  0
 26 27  1  0
 25 28  2  0
 28 29  1  0
 29 30  1  0
 28 31  1  0
 31 32  1  0
 32 33  1  0
 31 34  2  0
 34 35  1  0
 35 36  1  0
 14 37  1  0
 37 38  1  0
 10  3  1  0
 34 22  1  0
 38  5  1  0
M  END
>  <Compound_Key>  (1274) 
70

>  <Ki>  (1274) 
12.58

>  <database>  (1274) 
NewLiterature

>  <Document_ChEMBL_ID>  (1274) 
10.1021/acs.jmedchem.0c02265

$$$$

     RDKit          2D

 25 28  0  0  0  0  0  0  0  0999 V2000
    7.9872   -0.9145    0.0000 C   0  0  0  0  0  0  0  0  0  0  0  0
    6.9250   -1.9736    0.0000 C   0  0  0  0  0  0  0  0  0  0  0  0
    5.4767   -1.5834    0.0000 C   0  0  0  0  0  0  0  0  0  0  0  0
    5.0905   -0.1339    0.0000 C   0  0  0  0  0  0  0  0  0  0  0  0
    3.6421    0.2563    0.0000 C   0  0  0  0  0  0  0  0  0  0  0  0
    2.5800   -0.8028    0.0000 C   0  0  0  0  0  0  0  0  0  0  0  0
    1.1316   -0.4126    0.0000 C   0  0  0  0  0  0  0  0  0  0  0  0
    0.0695   -1.4717    0.0000 C   0  0  0  0  0  0  0  0  0  0  0  0
   -1.3789   -1.0815    0.0000 N   0  0  0  0  0  0  0  0  0  0  0  0
   -1.7650    0.3680    0.0000 C   0  0  0  0  0  0  0  0  0  0  0  0
   -3.2134    0.7582    0.0000 C   0  0  0  0  0  0  0  0  0  0  0  0
   -4.2755   -0.3009    0.0000 N   0  0  0  0  0  0  0  0  0  0  0  0
   -5.7239    0.0893    0.0000 C   0  0  0  0  0  0  0  0  0  0  0  0
   -6.1101    1.5388    0.0000 C   0  0  0  0  0  0  0  0  0  0  0  0
   -7.5584    1.9290    0.0000 C   0  0  0  0  0  0  0  0  0  0  0  0
   -8.6206    0.8699    0.0000 C   0  0  0  0  0  0  0  0  0  0  0  0
   -8.2344   -0.5796    0.0000 C   0  0  0  0  0  0  0  0  0  0  0  0
   -6.7860   -0.9698    0.0000 C   0  0  0  0  0  0  0  0  0  0  0  0
   -3.8894   -1.7504    0.0000 C   0  0  0  0  0  0  0  0  0  0  0  0
   -2.4410   -2.1406    0.0000 C   0  0  0  0  0  0  0  0  0  0  0  0
    3.2559    1.7058    0.0000 C   0  0  0  0  0  0  0  0  0  0  0  0
    4.3181    2.7649    0.0000 C   0  0  0  0  0  0  0  0  0  0  0  0
    5.7664    2.3747    0.0000 C   0  0  0  0  0  0  0  0  0  0  0  0
    6.1526    0.9252    0.0000 C   0  0  0  0  0  0  0  0  0  0  0  0
    7.6010    0.5350    0.0000 C   0  0  0  0  0  0  0  0  0  0  0  0
  1  2  2  0
  2  3  1  0
  3  4  2  0
  4  5  1  0
  5  6  1  0
  6  7  1  0
  7  8  1  0
  8  9  1  0
  9 10  1  0
 10 11  1  0
 11 12  1  0
 12 13  1  0
 13 14  1  0
 14 15  1  0
 15 16  1  0
 16 17  1  0
 17 18  1  0
 12 19  1  0
 19 20  1  0
  5 21  2  0
 21 22  1  0
 22 23  2  0
 23 24  1  0
 24 25  2  0
 25  1  1  0
 24  4  1  0
 20  9  1  0
 18 13  1  0
M  END
>  <ChemBL_ID>  (1275) 
CHEMBL75480

>  <Compound_Key>  (1275) 
43

>  <Ki>  (1275) 
0.69

>  <database>  (1275) 
CHEMBL

>  <Assay_ChEMBL_ID>  (1275) 
CHEMBL807586

>  <Document_ChEMBL_ID>  (1275) 
CHEMBL1148440

$$$$

     RDKit          2D

 27 30  0  0  0  0  0  0  0  0999 V2000
    9.2026   -1.0099    0.0000 C   0  0  0  0  0  0  0  0  0  0  0  0
    8.0833   -2.0085    0.0000 C   0  0  0  0  0  0  0  0  0  0  0  0
    6.6588   -1.5385    0.0000 C   0  0  0  0  0  0  0  0  0  0  0  0
    6.3536   -0.0699    0.0000 C   0  0  0  0  0  0  0  0  0  0  0  0
    4.9292    0.4002    0.0000 C   0  0  0  0  0  0  0  0  0  0  0  0
    3.8099   -0.5985    0.0000 C   0  0  0  0  0  0  0  0  0  0  0  0
    2.3854   -0.1285    0.0000 C   0  0  0  0  0  0  0  0  0  0  0  0
    1.2662   -1.1271    0.0000 C   0  0  0  0  0  0  0  0  0  0  0  0
   -0.1583   -0.6571    0.0000 C   0  0  0  0  0  0  0  0  0  0  0  0
   -1.2776   -1.6557    0.0000 C   0  0  0  0  0  0  0  0  0  0  0  0
   -2.7020   -1.1857    0.0000 N   0  0  0  0  0  0  0  0  0  0  0  0
   -3.0072    0.2830    0.0000 C   0  0  0  0  0  0  0  0  0  0  0  0
   -4.4317    0.7530    0.0000 C   0  0  0  0  0  0  0  0  0  0  0  0
   -5.5510   -0.2457    0.0000 N   0  0  0  0  0  0  0  0  0  0  0  0
   -6.9754    0.2244    0.0000 C   0  0  0  0  0  0  0  0  0  0  0  0
   -7.2806    1.6930    0.0000 C   0  0  0  0  0  0  0  0  0  0  0  0
   -8.7051    2.1630    0.0000 C   0  0  0  0  0  0  0  0  0  0  0  0
   -9.8243    1.1644    0.0000 C   0  0  0  0  0  0  0  0  0  0  0  0
   -9.5192   -0.3043    0.0000 C   0  0  0  0  0  0  0  0  0  0  0  0
   -8.0947   -0.7743    0.0000 C   0  0  0  0  0  0  0  0  0  0  0  0
   -5.2458   -1.7143    0.0000 C   0  0  0  0  0  0  0  0  0  0  0  0
   -3.8213   -2.1843    0.0000 C   0  0  0  0  0  0  0  0  0  0  0  0
    4.6240    1.8688    0.0000 C   0  0  0  0  0  0  0  0  0  0  0  0
    5.7432    2.8674    0.0000 C   0  0  0  0  0  0  0  0  0  0  0  0
    7.1677    2.3974    0.0000 C   0  0  0  0  0  0  0  0  0  0  0  0
    7.4729    0.9288    0.0000 C   0  0  0  0  0  0  0  0  0  0  0  0
    8.8974    0.4588    0.0000 C   0  0  0  0  0  0  0  0  0  0  0  0
  1  2  2  0
  2  3  1  0
  3  4  2  0
  4  5  1  0
  5  6  1  0
  6  7  1  0
  7  8  1  0
  8  9  1  0
  9 10  1  0
 10 11  1  0
 11 12  1  0
 12 13  1  0
 13 14  1  0
 14 15  1  0
 15 16  1  0
 16 17  1  0
 17 18  1  0
 18 19  1  0
 19 20  1  0
 14 21  1  0
 21 22  1  0
  5 23  2  0
 23 24  1  0
 24 25  2  0
 25 26  1  0
 26 27  2  0
 27  1  1  0
 26  4  1  0
 22 11  1  0
 20 15  1  0
M  END
>  <ChemBL_ID>  (1276) 
CHEMBL75372

>  <Compound_Key>  (1276) 
46

>  <Ki>  (1276) 
0.57

>  <database>  (1276) 
CHEMBL

>  <Assay_ChEMBL_ID>  (1276) 
CHEMBL807586

>  <Document_ChEMBL_ID>  (1276) 
CHEMBL1148440

$$$$

     RDKit          2D

 25 28  0  0  0  0  0  0  0  0999 V2000
    7.9872   -0.9145    0.0000 C   0  0  0  0  0  0  0  0  0  0  0  0
    6.9250   -1.9736    0.0000 C   0  0  0  0  0  0  0  0  0  0  0  0
    5.4767   -1.5834    0.0000 C   0  0  0  0  0  0  0  0  0  0  0  0
    5.0905   -0.1339    0.0000 C   0  0  0  0  0  0  0  0  0  0  0  0
    6.1526    0.9252    0.0000 C   0  0  0  0  0  0  0  0  0  0  0  0
    7.6010    0.5350    0.0000 C   0  0  0  0  0  0  0  0  0  0  0  0
    5.7664    2.3747    0.0000 C   0  0  0  0  0  0  0  0  0  0  0  0
    4.3181    2.7649    0.0000 C   0  0  0  0  0  0  0  0  0  0  0  0
    3.2559    1.7058    0.0000 C   0  0  0  0  0  0  0  0  0  0  0  0
    3.6421    0.2563    0.0000 C   0  0  0  0  0  0  0  0  0  0  0  0
    2.5800   -0.8028    0.0000 C   0  0  0  0  0  0  0  0  0  0  0  0
    1.1316   -0.4126    0.0000 C   0  0  0  0  0  0  0  0  0  0  0  0
    0.0695   -1.4717    0.0000 C   0  0  0  0  0  0  0  0  0  0  0  0
   -1.3789   -1.0815    0.0000 N   0  0  0  0  0  0  0  0  0  0  0  0
   -1.7650    0.3680    0.0000 C   0  0  0  0  0  0  0  0  0  0  0  0
   -3.2134    0.7582    0.0000 C   0  0  0  0  0  0  0  0  0  0  0  0
   -4.2755   -0.3009    0.0000 N   0  0  0  0  0  0  0  0  0  0  0  0
   -5.7239    0.0893    0.0000 C   0  0  0  0  0  0  0  0  0  0  0  0
   -6.1101    1.5388    0.0000 C   0  0  0  0  0  0  0  0  0  0  0  0
   -7.5584    1.9290    0.0000 C   0  0  0  0  0  0  0  0  0  0  0  0
   -8.6206    0.8699    0.0000 C   0  0  0  0  0  0  0  0  0  0  0  0
   -8.2344   -0.5796    0.0000 C   0  0  0  0  0  0  0  0  0  0  0  0
   -6.7860   -0.9698    0.0000 C   0  0  0  0  0  0  0  0  0  0  0  0
   -3.8894   -1.7504    0.0000 C   0  0  0  0  0  0  0  0  0  0  0  0
   -2.4410   -2.1406    0.0000 C   0  0  0  0  0  0  0  0  0  0  0  0
  1  2  2  0
  2  3  1  0
  3  4  2  0
  4  5  1  0
  5  6  2  0
  5  7  1  0
  7  8  1  0
  8  9  1  0
  9 10  1  0
 10 11  1  0
 11 12  1  0
 12 13  1  0
 13 14  1  0
 14 15  1  0
 15 16  1  0
 16 17  1  0
 17 18  1  0
 18 19  1  0
 19 20  1  0
 20 21  1  0
 21 22  1  0
 22 23  1  0
 17 24  1  0
 24 25  1  0
  6  1  1  0
 25 14  1  0
 10  4  1  0
 23 18  1  0
M  END
>  <ChemBL_ID>  (1277) 
CHEMBL75608

>  <Compound_Key>  (1277) 
32

>  <Ki>  (1277) 
0.68

>  <database>  (1277) 
CHEMBL

>  <Assay_ChEMBL_ID>  (1277) 
CHEMBL807586

>  <Document_ChEMBL_ID>  (1277) 
CHEMBL1148440

$$$$

     RDKit          2D

 26 29  0  0  0  0  0  0  0  0999 V2000
    7.7960   -2.4991    0.0000 C   0  0  0  0  0  0  0  0  0  0  0  0
    6.3702   -2.9649    0.0000 C   0  0  0  0  0  0  0  0  0  0  0  0
    5.2539   -1.9630    0.0000 C   0  0  0  0  0  0  0  0  0  0  0  0
    5.5634   -0.4953    0.0000 C   0  0  0  0  0  0  0  0  0  0  0  0
    6.9893   -0.0295    0.0000 C   0  0  0  0  0  0  0  0  0  0  0  0
    8.1056   -1.0314    0.0000 C   0  0  0  0  0  0  0  0  0  0  0  0
    7.2988    1.4382    0.0000 C   0  0  0  0  0  0  0  0  0  0  0  0
    6.1825    2.4402    0.0000 C   0  0  0  0  0  0  0  0  0  0  0  0
    4.7567    1.9744    0.0000 C   0  0  0  0  0  0  0  0  0  0  0  0
    4.4471    0.5067    0.0000 C   0  0  0  0  0  0  0  0  0  0  0  0
    3.0213    0.0409    0.0000 C   0  0  0  0  0  0  0  0  0  0  0  0
    1.9050    1.0428    0.0000 C   0  0  0  0  0  0  0  0  0  0  0  0
    0.4791    0.5770    0.0000 C   0  0  0  0  0  0  0  0  0  0  0  0
   -0.6372    1.5789    0.0000 C   0  0  0  0  0  0  0  0  0  0  0  0
   -2.0630    1.1132    0.0000 N   0  0  0  0  0  0  0  0  0  0  0  0
   -3.1793    2.1151    0.0000 C   0  0  0  0  0  0  0  0  0  0  0  0
   -4.6052    1.6493    0.0000 C   0  0  0  0  0  0  0  0  0  0  0  0
   -4.9147    0.1816    0.0000 N   0  0  0  0  0  0  0  0  0  0  0  0
   -6.3406   -0.2842    0.0000 C   0  0  0  0  0  0  0  0  0  0  0  0
   -7.4569    0.7177    0.0000 C   0  0  0  0  0  0  0  0  0  0  0  0
   -8.8827    0.2519    0.0000 C   0  0  0  0  0  0  0  0  0  0  0  0
   -9.1923   -1.2158    0.0000 C   0  0  0  0  0  0  0  0  0  0  0  0
   -8.0760   -2.2177    0.0000 C   0  0  0  0  0  0  0  0  0  0  0  0
   -6.6501   -1.7519    0.0000 C   0  0  0  0  0  0  0  0  0  0  0  0
   -3.7984   -0.8203    0.0000 C   0  0  0  0  0  0  0  0  0  0  0  0
   -2.3726   -0.3546    0.0000 C   0  0  0  0  0  0  0  0  0  0  0  0
  1  2  2  0
  2  3  1  0
  3  4  2  0
  4  5  1  0
  5  6  2  0
  5  7  1  0
  7  8  1  0
  8  9  1  0
  9 10  1  0
 10 11  1  0
 11 12  1  0
 12 13  1  0
 13 14  1  0
 14 15  1  0
 15 16  1  0
 16 17  1  0
 17 18  1  0
 18 19  1  0
 19 20  1  0
 20 21  1  0
 21 22  1  0
 22 23  1  0
 23 24  1  0
 18 25  1  0
 25 26  1  0
  6  1  1  0
 26 15  1  0
 10  4  1  0
 24 19  1  0
M  END
>  <ChemBL_ID>  (1278) 
CHEMBL76758

>  <Compound_Key>  (1278) 
36

>  <Ki>  (1278) 
14.6

>  <database>  (1278) 
CHEMBL

>  <Assay_ChEMBL_ID>  (1278) 
CHEMBL807586

>  <Document_ChEMBL_ID>  (1278) 
CHEMBL1148440

$$$$

     RDKit          2D

 27 30  0  0  0  0  0  0  0  0999 V2000
    9.2026   -1.0099    0.0000 C   0  0  0  0  0  0  0  0  0  0  0  0
    8.0833   -2.0085    0.0000 C   0  0  0  0  0  0  0  0  0  0  0  0
    6.6588   -1.5385    0.0000 C   0  0  0  0  0  0  0  0  0  0  0  0
    6.3536   -0.0699    0.0000 C   0  0  0  0  0  0  0  0  0  0  0  0
    7.4729    0.9288    0.0000 C   0  0  0  0  0  0  0  0  0  0  0  0
    8.8974    0.4588    0.0000 C   0  0  0  0  0  0  0  0  0  0  0  0
    7.1677    2.3974    0.0000 C   0  0  0  0  0  0  0  0  0  0  0  0
    5.7432    2.8674    0.0000 C   0  0  0  0  0  0  0  0  0  0  0  0
    4.6240    1.8688    0.0000 C   0  0  0  0  0  0  0  0  0  0  0  0
    4.9292    0.4002    0.0000 C   0  0  0  0  0  0  0  0  0  0  0  0
    3.8099   -0.5985    0.0000 C   0  0  0  0  0  0  0  0  0  0  0  0
    2.3854   -0.1285    0.0000 C   0  0  0  0  0  0  0  0  0  0  0  0
    1.2662   -1.1271    0.0000 C   0  0  0  0  0  0  0  0  0  0  0  0
   -0.1583   -0.6571    0.0000 C   0  0  0  0  0  0  0  0  0  0  0  0
   -1.2776   -1.6557    0.0000 C   0  0  0  0  0  0  0  0  0  0  0  0
   -2.7020   -1.1857    0.0000 N   0  0  0  0  0  0  0  0  0  0  0  0
   -3.0072    0.2830    0.0000 C   0  0  0  0  0  0  0  0  0  0  0  0
   -4.4317    0.7530    0.0000 C   0  0  0  0  0  0  0  0  0  0  0  0
   -5.5510   -0.2457    0.0000 N   0  0  0  0  0  0  0  0  0  0  0  0
   -6.9754    0.2244    0.0000 C   0  0  0  0  0  0  0  0  0  0  0  0
   -7.2806    1.6930    0.0000 C   0  0  0  0  0  0  0  0  0  0  0  0
   -8.7051    2.1630    0.0000 C   0  0  0  0  0  0  0  0  0  0  0  0
   -9.8243    1.1644    0.0000 C   0  0  0  0  0  0  0  0  0  0  0  0
   -9.5192   -0.3043    0.0000 C   0  0  0  0  0  0  0  0  0  0  0  0
   -8.0947   -0.7743    0.0000 C   0  0  0  0  0  0  0  0  0  0  0  0
   -5.2458   -1.7143    0.0000 C   0  0  0  0  0  0  0  0  0  0  0  0
   -3.8213   -2.1843    0.0000 C   0  0  0  0  0  0  0  0  0  0  0  0
  1  2  2  0
  2  3  1  0
  3  4  2  0
  4  5  1  0
  5  6  2  0
  5  7  1  0
  7  8  1  0
  8  9  1  0
  9 10  1  0
 10 11  1  0
 11 12  1  0
 12 13  1  0
 13 14  1  0
 14 15  1  0
 15 16  1  0
 16 17  1  0
 17 18  1  0
 18 19  1  0
 19 20  1  0
 20 21  1  0
 21 22  1  0
 22 23  1  0
 23 24  1  0
 24 25  1  0
 19 26  1  0
 26 27  1  0
  6  1  1  0
 27 16  1  0
 10  4  1  0
 25 20  1  0
M  END
>  <ChemBL_ID>  (1279) 
CHEMBL74080

>  <Compound_Key>  (1279) 
38

>  <Ki>  (1279) 
7.85

>  <database>  (1279) 
CHEMBL

>  <Assay_ChEMBL_ID>  (1279) 
CHEMBL807586

>  <Document_ChEMBL_ID>  (1279) 
CHEMBL1148440

$$$$

     RDKit          2D

 20 22  0  0  0  0  0  0  0  0999 V2000
    7.4730   -0.7632    0.0000 C   0  0  0  0  0  0  0  0  0  0  0  0
    6.6027   -1.9849    0.0000 C   0  0  0  0  0  0  0  0  0  0  0  0
    5.1095   -1.8421    0.0000 C   0  0  0  0  0  0  0  0  0  0  0  0
    4.4866   -0.4776    0.0000 C   0  0  0  0  0  0  0  0  0  0  0  0
    2.9934   -0.3348    0.0000 O   0  0  0  0  0  0  0  0  0  0  0  0
    2.3704    1.0297    0.0000 C   0  0  0  0  0  0  0  0  0  0  0  0
    0.8772    1.1725    0.0000 C   0  0  0  0  0  0  0  0  0  0  0  0
   -0.1159    0.0484    0.0000 C   0  0  0  0  0  0  0  0  0  0  0  0
   -1.4919    0.6456    0.0000 C   0  0  0  0  0  0  0  0  0  0  0  0
   -2.7839   -0.1166    0.0000 O   0  0  0  0  0  0  0  0  0  0  0  0
   -4.0899    0.6212    0.0000 C   0  0  0  0  0  0  0  0  0  0  0  0
   -5.3818   -0.1410    0.0000 C   0  0  0  0  0  0  0  0  0  0  0  0
   -5.5246   -1.6342    0.0000 C   0  0  0  0  0  0  0  0  0  0  0  0
   -6.9888   -1.9598    0.0000 C   0  0  0  0  0  0  0  0  0  0  0  0
   -7.7510   -0.6679    0.0000 C   0  0  0  0  0  0  0  0  0  0  0  0
   -6.7578    0.4562    0.0000 N   0  0  0  0  0  0  0  0  0  0  0  0
   -1.3491    2.1388    0.0000 N   0  0  0  0  0  0  0  0  0  0  0  0
    0.1151    2.4644    0.0000 O   0  0  0  0  0  0  0  0  0  0  0  0
    5.3568    0.7441    0.0000 C   0  0  0  0  0  0  0  0  0  0  0  0
    6.8500    0.6014    0.0000 C   0  0  0  0  0  0  0  0  0  0  0  0
  1  2  2  0
  2  3  1  0
  3  4  2  0
  4  5  1  0
  5  6  1  0
  6  7  1  0
  7  8  2  0
  8  9  1  0
  9 10  1  0
 10 11  1  0
 11 12  1  0
 12 13  1  0
 13 14  1  0
 14 15  1  0
 15 16  1  0
  9 17  2  0
 17 18  1  0
  4 19  1  0
 19 20  2  0
 20  1  1  0
 18  7  1  0
 16 12  1  0
M  END
>  <Compound_Key>  (1280) 
82

>  <Ki>  (1280) 
1312.0

>  <database>  (1280) 
NewLiterature

>  <Document_ChEMBL_ID>  (1280) 
10.1021/acs.jmedchem.0c02265

$$$$

     RDKit          2D

 22 24  0  0  0  0  0  0  0  0999 V2000
    8.1986   -1.0230    0.0000 Cl  0  0  0  0  0  0  0  0  0  0  0  0
    6.7068   -0.8665    0.0000 C   0  0  0  0  0  0  0  0  0  0  0  0
    5.8254   -2.0802    0.0000 C   0  0  0  0  0  0  0  0  0  0  0  0
    4.3336   -1.9237    0.0000 C   0  0  0  0  0  0  0  0  0  0  0  0
    3.7232   -0.5535    0.0000 C   0  0  0  0  0  0  0  0  0  0  0  0
    2.2314   -0.3970    0.0000 O   0  0  0  0  0  0  0  0  0  0  0  0
    1.6210    0.9732    0.0000 C   0  0  0  0  0  0  0  0  0  0  0  0
    0.1292    1.1296    0.0000 C   0  0  0  0  0  0  0  0  0  0  0  0
   -0.8743    0.0147    0.0000 C   0  0  0  0  0  0  0  0  0  0  0  0
   -2.2448    0.6245    0.0000 C   0  0  0  0  0  0  0  0  0  0  0  0
   -3.5436   -0.1257    0.0000 O   0  0  0  0  0  0  0  0  0  0  0  0
   -4.8428    0.6240    0.0000 C   0  0  0  0  0  0  0  0  0  0  0  0
   -6.1417   -0.1263    0.0000 C   0  0  0  0  0  0  0  0  0  0  0  0
   -6.2982   -1.6181    0.0000 C   0  0  0  0  0  0  0  0  0  0  0  0
   -7.7653   -1.9303    0.0000 C   0  0  0  0  0  0  0  0  0  0  0  0
   -8.5156   -0.6314    0.0000 C   0  0  0  0  0  0  0  0  0  0  0  0
   -7.5122    0.4835    0.0000 N   0  0  0  0  0  0  0  0  0  0  0  0
   -2.0883    2.1163    0.0000 N   0  0  0  0  0  0  0  0  0  0  0  0
   -0.6211    2.4285    0.0000 O   0  0  0  0  0  0  0  0  0  0  0  0
    4.6046    0.6602    0.0000 C   0  0  0  0  0  0  0  0  0  0  0  0
    6.0964    0.5037    0.0000 C   0  0  0  0  0  0  0  0  0  0  0  0
    6.9778    1.7174    0.0000 Cl  0  0  0  0  0  0  0  0  0  0  0  0
  1  2  1  0
  2  3  2  0
  3  4  1  0
  4  5  2  0
  5  6  1  0
  6  7  1  0
  7  8  1  0
  8  9  2  0
  9 10  1  0
 10 11  1  0
 11 12  1  0
 12 13  1  0
 13 14  1  0
 14 15  1  0
 15 16  1  0
 16 17  1  0
 10 18  2  0
 18 19  1  0
  5 20  1  0
 20 21  2  0
 21 22  1  0
 21  2  1  0
 19  8  1  0
 17 13  1  0
M  END
>  <Compound_Key>  (1281) 
83

>  <Ki>  (1281) 
46.5

>  <database>  (1281) 
NewLiterature

>  <Document_ChEMBL_ID>  (1281) 
10.1021/acs.jmedchem.0c02265

$$$$

     RDKit          2D

 31 33  0  0  0  0  0  0  0  0999 V2000
   -7.6817    7.0164    0.0000 N   0  0  0  0  0  0  0  0  0  0  0  0
   -7.9100    5.5339    0.0000 C   0  0  0  0  0  0  0  0  0  0  0  0
   -6.7402    4.5949    0.0000 C   0  0  0  0  0  0  0  0  0  0  0  0
   -6.9685    3.1124    0.0000 C   0  0  0  0  0  0  0  0  0  0  0  0
   -5.7988    2.1734    0.0000 C   0  0  0  0  0  0  0  0  0  0  0  0
   -6.0271    0.6909    0.0000 C   0  0  0  0  0  0  0  0  0  0  0  0
   -4.8573   -0.2481    0.0000 C   0  0  0  0  0  0  0  0  0  0  0  0
   -5.0857   -1.7306    0.0000 N   0  0  0  0  0  0  0  0  0  0  0  0
   -6.4192   -2.4173    0.0000 C   0  0  0  0  0  0  0  0  0  0  0  0
   -6.1782   -3.8978    0.0000 C   0  0  0  0  0  0  0  0  0  0  0  0
   -4.6957   -4.1262    0.0000 C   0  0  0  0  0  0  0  0  0  0  0  0
   -4.0205   -2.7867    0.0000 C   0  0  0  0  0  0  0  0  0  0  0  0
   -2.5399   -2.5457    0.0000 C   0  0  0  0  0  0  0  0  0  0  0  0
   -1.5910   -3.7074    0.0000 O   0  0  0  0  0  0  0  0  0  0  0  0
   -0.1105   -3.4664    0.0000 C   0  0  0  0  0  0  0  0  0  0  0  0
    0.5648   -2.1270    0.0000 C   0  0  0  0  0  0  0  0  0  0  0  0
    2.0473   -2.3553    0.0000 C   0  0  0  0  0  0  0  0  0  0  0  0
    3.1034   -1.2901    0.0000 C   0  0  0  0  0  0  0  0  0  0  0  0
    4.5540   -1.6721    0.0000 O   0  0  0  0  0  0  0  0  0  0  0  0
    5.6101   -0.6069    0.0000 C   0  0  0  0  0  0  0  0  0  0  0  0
    7.0606   -0.9890    0.0000 C   0  0  0  0  0  0  0  0  0  0  0  0
    8.1167    0.0762    0.0000 C   0  0  0  0  0  0  0  0  0  0  0  0
    7.7223    1.5234    0.0000 C   0  0  0  0  0  0  0  0  0  0  0  0
    6.2717    1.9055    0.0000 C   0  0  0  0  0  0  0  0  0  0  0  0
    5.8773    3.3527    0.0000 C   0  0  0  0  0  0  0  0  0  0  0  0
    5.4829    4.7999    0.0000 F   0  0  0  0  0  0  0  0  0  0  0  0
    7.3245    3.7471    0.0000 F   0  0  0  0  0  0  0  0  0  0  0  0
    4.4301    2.9583    0.0000 F   0  0  0  0  0  0  0  0  0  0  0  0
    5.2156    0.8403    0.0000 C   0  0  0  0  0  0  0  0  0  0  0  0
    2.2883   -3.8358    0.0000 O   0  0  0  0  0  0  0  0  0  0  0  0
    0.9547   -4.5225    0.0000 N   0  0  0  0  0  0  0  0  0  0  0  0
  1  2  1  0
  2  3  1  0
  3  4  1  0
  4  5  1  0
  5  6  1  0
  6  7  1  0
  7  8  1  0
  8  9  1  0
  9 10  1  0
 10 11  1  0
 11 12  1  0
 12 13  1  0
 13 14  1  0
 14 15  1  0
 15 16  1  0
 16 17  2  0
 17 18  1  0
 18 19  1  0
 19 20  1  0
 20 21  2  0
 21 22  1  0
 22 23  2  0
 23 24  1  0
 24 25  1  0
 25 26  1  0
 25 27  1  0
 25 28  1  0
 24 29  2  0
 17 30  1  0
 30 31  1  0
 12  8  1  0
 31 15  2  0
 29 20  1  0
M  END
>  <Compound_Key>  (1282) 
84

>  <Ki>  (1282) 
8.46

>  <database>  (1282) 
NewLiterature

>  <Document_ChEMBL_ID>  (1282) 
10.1021/acs.jmedchem.0c02265

$$$$

     RDKit          2D

 29 31  0  0  0  0  0  0  0  0999 V2000
   -7.9207    6.7463    0.0000 N   0  0  0  0  0  0  0  0  0  0  0  0
   -8.0367    5.2508    0.0000 C   0  0  0  0  0  0  0  0  0  0  0  0
   -6.7995    4.4026    0.0000 C   0  0  0  0  0  0  0  0  0  0  0  0
   -6.9155    2.9071    0.0000 C   0  0  0  0  0  0  0  0  0  0  0  0
   -5.6783    2.0589    0.0000 C   0  0  0  0  0  0  0  0  0  0  0  0
   -5.7943    0.5634    0.0000 C   0  0  0  0  0  0  0  0  0  0  0  0
   -4.5572   -0.2848    0.0000 C   0  0  0  0  0  0  0  0  0  0  0  0
   -4.6731   -1.7803    0.0000 N   0  0  0  0  0  0  0  0  0  0  0  0
   -5.9512   -2.5655    0.0000 C   0  0  0  0  0  0  0  0  0  0  0  0
   -5.5993   -4.0236    0.0000 C   0  0  0  0  0  0  0  0  0  0  0  0
   -4.1038   -4.1396    0.0000 C   0  0  0  0  0  0  0  0  0  0  0  0
   -3.5314   -2.7531    0.0000 C   0  0  0  0  0  0  0  0  0  0  0  0
   -2.0732   -2.4013    0.0000 C   0  0  0  0  0  0  0  0  0  0  0  0
   -1.0395   -3.4882    0.0000 O   0  0  0  0  0  0  0  0  0  0  0  0
    0.4187   -3.1363    0.0000 C   0  0  0  0  0  0  0  0  0  0  0  0
    0.9911   -1.7498    0.0000 C   0  0  0  0  0  0  0  0  0  0  0  0
    2.4866   -1.8658    0.0000 C   0  0  0  0  0  0  0  0  0  0  0  0
    3.4595   -0.7241    0.0000 C   0  0  0  0  0  0  0  0  0  0  0  0
    4.9347   -0.9957    0.0000 O   0  0  0  0  0  0  0  0  0  0  0  0
    5.9076    0.1460    0.0000 C   0  0  0  0  0  0  0  0  0  0  0  0
    7.3827   -0.1257    0.0000 C   0  0  0  0  0  0  0  0  0  0  0  0
    8.3556    1.0161    0.0000 C   0  0  0  0  0  0  0  0  0  0  0  0
    7.8533    2.4294    0.0000 C   0  0  0  0  0  0  0  0  0  0  0  0
    8.8261    3.5712    0.0000 Cl  0  0  0  0  0  0  0  0  0  0  0  0
    6.3781    2.7011    0.0000 C   0  0  0  0  0  0  0  0  0  0  0  0
    5.8757    4.1145    0.0000 Cl  0  0  0  0  0  0  0  0  0  0  0  0
    5.4052    1.5594    0.0000 C   0  0  0  0  0  0  0  0  0  0  0  0
    2.8385   -3.3240    0.0000 O   0  0  0  0  0  0  0  0  0  0  0  0
    1.5604   -4.1092    0.0000 N   0  0  0  0  0  0  0  0  0  0  0  0
  1  2  1  0
  2  3  1  0
  3  4  1  0
  4  5  1  0
  5  6  1  0
  6  7  1  0
  7  8  1  0
  8  9  1  0
  9 10  1  0
 10 11  1  0
 11 12  1  0
 12 13  1  0
 13 14  1  0
 14 15  1  0
 15 16  1  0
 16 17  2  0
 17 18  1  0
 18 19  1  0
 19 20  1  0
 20 21  2  0
 21 22  1  0
 22 23  2  0
 23 24  1  0
 23 25  1  0
 25 26  1  0
 25 27  2  0
 17 28  1  0
 28 29  1  0
 12  8  1  0
 29 15  2  0
 27 20  1  0
M  END
>  <Compound_Key>  (1283) 
85

>  <Ki>  (1283) 
10.3

>  <database>  (1283) 
NewLiterature

>  <Document_ChEMBL_ID>  (1283) 
10.1021/acs.jmedchem.0c02265

$$$$

     RDKit          2D

 27 29  0  0  0  0  0  0  0  0999 V2000
   -6.4357    6.0577    0.0000 N   0  0  0  0  0  0  0  0  0  0  0  0
   -6.8098    4.6051    0.0000 C   0  0  0  0  0  0  0  0  0  0  0  0
   -5.7389    3.5548    0.0000 C   0  0  0  0  0  0  0  0  0  0  0  0
   -6.1130    2.1022    0.0000 C   0  0  0  0  0  0  0  0  0  0  0  0
   -5.0421    1.0519    0.0000 C   0  0  0  0  0  0  0  0  0  0  0  0
   -5.4162   -0.4007    0.0000 N   0  0  0  0  0  0  0  0  0  0  0  0
   -6.8113   -0.9518    0.0000 C   0  0  0  0  0  0  0  0  0  0  0  0
   -6.7182   -2.4489    0.0000 C   0  0  0  0  0  0  0  0  0  0  0  0
   -5.2656   -2.8231    0.0000 C   0  0  0  0  0  0  0  0  0  0  0  0
   -4.4609   -1.5572    0.0000 C   0  0  0  0  0  0  0  0  0  0  0  0
   -2.9638   -1.4641    0.0000 C   0  0  0  0  0  0  0  0  0  0  0  0
   -2.1347   -2.7141    0.0000 O   0  0  0  0  0  0  0  0  0  0  0  0
   -0.6376   -2.6211    0.0000 C   0  0  0  0  0  0  0  0  0  0  0  0
    0.1671   -1.3552    0.0000 C   0  0  0  0  0  0  0  0  0  0  0  0
    1.6197   -1.7293    0.0000 C   0  0  0  0  0  0  0  0  0  0  0  0
    2.7762   -0.7740    0.0000 C   0  0  0  0  0  0  0  0  0  0  0  0
    4.1817   -1.2979    0.0000 O   0  0  0  0  0  0  0  0  0  0  0  0
    5.3382   -0.3427    0.0000 C   0  0  0  0  0  0  0  0  0  0  0  0
    6.7438   -0.8666    0.0000 C   0  0  0  0  0  0  0  0  0  0  0  0
    7.9002    0.0887    0.0000 C   0  0  0  0  0  0  0  0  0  0  0  0
    7.6512    1.5679    0.0000 C   0  0  0  0  0  0  0  0  0  0  0  0
    8.8077    2.5231    0.0000 Cl  0  0  0  0  0  0  0  0  0  0  0  0
    6.2457    2.0918    0.0000 C   0  0  0  0  0  0  0  0  0  0  0  0
    5.9966    3.5710    0.0000 Cl  0  0  0  0  0  0  0  0  0  0  0  0
    5.0892    1.1365    0.0000 C   0  0  0  0  0  0  0  0  0  0  0  0
    1.7128   -3.2264    0.0000 O   0  0  0  0  0  0  0  0  0  0  0  0
    0.3177   -3.7775    0.0000 N   0  0  0  0  0  0  0  0  0  0  0  0
  1  2  1  0
  2  3  1  0
  3  4  1  0
  4  5  1  0
  5  6  1  0
  6  7  1  0
  7  8  1  0
  8  9  1  0
  9 10  1  0
 10 11  1  0
 11 12  1  0
 12 13  1  0
 13 14  1  0
 14 15  2  0
 15 16  1  0
 16 17  1  0
 17 18  1  0
 18 19  2  0
 19 20  1  0
 20 21  2  0
 21 22  1  0
 21 23  1  0
 23 24  1  0
 23 25  2  0
 15 26  1  0
 26 27  1  0
 10  6  1  0
 27 13  2  0
 25 18  1  0
M  END
>  <Compound_Key>  (1284) 
86

>  <Ki>  (1284) 
7.92

>  <database>  (1284) 
NewLiterature

>  <Document_ChEMBL_ID>  (1284) 
10.1021/acs.jmedchem.0c02265

$$$$

     RDKit          2D

 24 26  0  0  0  0  0  0  0  0999 V2000
   -6.9109   -0.7187    0.0000 C   0  0  0  0  0  0  0  0  0  0  0  0
   -5.4232   -0.5276    0.0000 N   0  0  0  0  0  0  0  0  0  0  0  0
   -4.5138   -1.7205    0.0000 C   0  0  0  0  0  0  0  0  0  0  0  0
   -3.0260   -1.5295    0.0000 C   0  0  0  0  0  0  0  0  0  0  0  0
   -2.1167   -2.7224    0.0000 O   0  0  0  0  0  0  0  0  0  0  0  0
   -0.6289   -2.5313    0.0000 C   0  0  0  0  0  0  0  0  0  0  0  0
    0.0910   -1.2154    0.0000 C   0  0  0  0  0  0  0  0  0  0  0  0
    1.5650   -1.4934    0.0000 C   0  0  0  0  0  0  0  0  0  0  0  0
    2.6564   -0.4643    0.0000 C   0  0  0  0  0  0  0  0  0  0  0  0
    4.0932   -0.8949    0.0000 O   0  0  0  0  0  0  0  0  0  0  0  0
    5.1846    0.1342    0.0000 C   0  0  0  0  0  0  0  0  0  0  0  0
    6.6214   -0.2964    0.0000 C   0  0  0  0  0  0  0  0  0  0  0  0
    7.7128    0.7326    0.0000 C   0  0  0  0  0  0  0  0  0  0  0  0
    7.3672    2.1923    0.0000 C   0  0  0  0  0  0  0  0  0  0  0  0
    5.9304    2.6229    0.0000 C   0  0  0  0  0  0  0  0  0  0  0  0
    4.8390    1.5938    0.0000 C   0  0  0  0  0  0  0  0  0  0  0  0
    1.7561   -2.9812    0.0000 O   0  0  0  0  0  0  0  0  0  0  0  0
    0.4002   -3.6226    0.0000 N   0  0  0  0  0  0  0  0  0  0  0  0
   -4.8447    0.8564    0.0000 C   0  0  0  0  0  0  0  0  0  0  0  0
   -3.3570    1.0475    0.0000 C   0  0  0  0  0  0  0  0  0  0  0  0
   -2.7785    2.4315    0.0000 C   0  0  0  0  0  0  0  0  0  0  0  0
   -3.6879    3.6244    0.0000 C   0  0  0  0  0  0  0  0  0  0  0  0
   -5.1757    3.4333    0.0000 C   0  0  0  0  0  0  0  0  0  0  0  0
   -5.7541    2.0493    0.0000 C   0  0  0  0  0  0  0  0  0  0  0  0
  1  2  1  0
  2  3  1  0
  3  4  1  0
  4  5  1  0
  5  6  1  0
  6  7  1  0
  7  8  2  0
  8  9  1  0
  9 10  1  0
 10 11  1  0
 11 12  2  0
 12 13  1  0
 13 14  2  0
 14 15  1  0
 15 16  2  0
  8 17  1  0
 17 18  1  0
  2 19  1  0
 19 20  1  0
 20 21  1  0
 21 22  1  0
 22 23  1  0
 23 24  1  0
 18  6  2  0
 24 19  1  0
 16 11  1  0
M  END
>  <Compound_Key>  (1285) 
87

>  <Ki>  (1285) 
22.8

>  <database>  (1285) 
NewLiterature

>  <Document_ChEMBL_ID>  (1285) 
10.1021/acs.jmedchem.0c02265

$$$$

     RDKit          2D

 25 27  0  0  0  0  0  0  0  0999 V2000
    9.6792   -1.1878    0.0000 Cl  0  0  0  0  0  0  0  0  0  0  0  0
    8.1910   -1.0002    0.0000 C   0  0  0  0  0  0  0  0  0  0  0  0
    7.2844   -2.1952    0.0000 C   0  0  0  0  0  0  0  0  0  0  0  0
    5.7961   -2.0076    0.0000 C   0  0  0  0  0  0  0  0  0  0  0  0
    5.2145   -0.6249    0.0000 C   0  0  0  0  0  0  0  0  0  0  0  0
    3.7263   -0.4373    0.0000 O   0  0  0  0  0  0  0  0  0  0  0  0
    3.1447    0.9453    0.0000 C   0  0  0  0  0  0  0  0  0  0  0  0
    1.6565    1.1330    0.0000 C   0  0  0  0  0  0  0  0  0  0  0  0
    0.6299    0.0393    0.0000 C   0  0  0  0  0  0  0  0  0  0  0  0
   -0.7275    0.6776    0.0000 C   0  0  0  0  0  0  0  0  0  0  0  0
   -2.0418   -0.0454    0.0000 O   0  0  0  0  0  0  0  0  0  0  0  0
   -3.3250    0.7314    0.0000 C   0  0  0  0  0  0  0  0  0  0  0  0
   -4.6393    0.0084    0.0000 C   0  0  0  0  0  0  0  0  0  0  0  0
   -5.9225    0.7851    0.0000 N   0  0  0  0  0  0  0  0  0  0  0  0
   -7.2368    0.0622    0.0000 C   0  0  0  0  0  0  0  0  0  0  0  0
   -8.5200    0.8389    0.0000 C   0  0  0  0  0  0  0  0  0  0  0  0
   -9.8343    0.1159    0.0000 C   0  0  0  0  0  0  0  0  0  0  0  0
   -9.8654   -1.3837    0.0000 C   0  0  0  0  0  0  0  0  0  0  0  0
   -8.5821   -2.1605    0.0000 C   0  0  0  0  0  0  0  0  0  0  0  0
   -7.2678   -1.4375    0.0000 C   0  0  0  0  0  0  0  0  0  0  0  0
   -0.5399    2.1658    0.0000 N   0  0  0  0  0  0  0  0  0  0  0  0
    0.9335    2.4473    0.0000 O   0  0  0  0  0  0  0  0  0  0  0  0
    6.1211    0.5701    0.0000 C   0  0  0  0  0  0  0  0  0  0  0  0
    7.6093    0.3825    0.0000 C   0  0  0  0  0  0  0  0  0  0  0  0
    8.5159    1.5775    0.0000 Cl  0  0  0  0  0  0  0  0  0  0  0  0
  1  2  1  0
  2  3  2  0
  3  4  1  0
  4  5  2  0
  5  6  1  0
  6  7  1  0
  7  8  1  0
  8  9  2  0
  9 10  1  0
 10 11  1  0
 11 12  1  0
 12 13  1  0
 13 14  1  0
 14 15  1  0
 15 16  1  0
 16 17  1  0
 17 18  1  0
 18 19  1  0
 19 20  1  0
 10 21  2  0
 21 22  1  0
  5 23  1  0
 23 24  2  0
 24 25  1  0
 24  2  1  0
 22  8  1  0
 20 15  1  0
M  END
>  <Compound_Key>  (1286) 
88

>  <Ki>  (1286) 
1.81

>  <database>  (1286) 
NewLiterature

>  <Document_ChEMBL_ID>  (1286) 
10.1021/acs.jmedchem.0c02265

$$$$

     RDKit          2D

 27 29  0  0  0  0  0  0  0  0999 V2000
   -8.9235   -2.0317    0.0000 F   0  0  0  0  0  0  0  0  0  0  0  0
   -7.9539   -0.8872    0.0000 C   0  0  0  0  0  0  0  0  0  0  0  0
   -9.0984    0.0824    0.0000 F   0  0  0  0  0  0  0  0  0  0  0  0
   -6.8094   -1.8568    0.0000 F   0  0  0  0  0  0  0  0  0  0  0  0
   -6.9843    0.2573    0.0000 C   0  0  0  0  0  0  0  0  0  0  0  0
   -7.4907    1.6692    0.0000 C   0  0  0  0  0  0  0  0  0  0  0  0
   -6.5211    2.8137    0.0000 C   0  0  0  0  0  0  0  0  0  0  0  0
   -5.0451    2.5463    0.0000 C   0  0  0  0  0  0  0  0  0  0  0  0
   -4.5388    1.1343    0.0000 C   0  0  0  0  0  0  0  0  0  0  0  0
   -3.0628    0.8669    0.0000 O   0  0  0  0  0  0  0  0  0  0  0  0
   -2.5564   -0.5450    0.0000 C   0  0  0  0  0  0  0  0  0  0  0  0
   -1.0804   -0.8125    0.0000 C   0  0  0  0  0  0  0  0  0  0  0  0
    0.0035    0.2244    0.0000 C   0  0  0  0  0  0  0  0  0  0  0  0
    1.3246   -0.4860    0.0000 C   0  0  0  0  0  0  0  0  0  0  0  0
    2.6758    0.1651    0.0000 O   0  0  0  0  0  0  0  0  0  0  0  0
    3.9154   -0.6795    0.0000 C   0  0  0  0  0  0  0  0  0  0  0  0
    5.2667   -0.0283    0.0000 C   0  0  0  0  0  0  0  0  0  0  0  0
    6.5063   -0.8730    0.0000 N   0  0  0  0  0  0  0  0  0  0  0  0
    7.8576   -0.2218    0.0000 C   0  0  0  0  0  0  0  0  0  0  0  0
    9.0971   -1.0664    0.0000 C   0  0  0  0  0  0  0  0  0  0  0  0
   10.4484   -0.4152    0.0000 C   0  0  0  0  0  0  0  0  0  0  0  0
   10.5601    1.0806    0.0000 C   0  0  0  0  0  0  0  0  0  0  0  0
    9.3205    1.9252    0.0000 C   0  0  0  0  0  0  0  0  0  0  0  0
    7.9693    1.2741    0.0000 C   0  0  0  0  0  0  0  0  0  0  0  0
    1.0571   -1.9620    0.0000 N   0  0  0  0  0  0  0  0  0  0  0  0
   -0.4293   -2.1638    0.0000 O   0  0  0  0  0  0  0  0  0  0  0  0
   -5.5083   -0.0102    0.0000 C   0  0  0  0  0  0  0  0  0  0  0  0
  1  2  1  0
  2  3  1  0
  2  4  1  0
  2  5  1  0
  5  6  2  0
  6  7  1  0
  7  8  2  0
  8  9  1  0
  9 10  1  0
 10 11  1  0
 11 12  1  0
 12 13  2  0
 13 14  1  0
 14 15  1  0
 15 16  1  0
 16 17  1  0
 17 18  1  0
 18 19  1  0
 19 20  1  0
 20 21  1  0
 21 22  1  0
 22 23  1  0
 23 24  1  0
 14 25  2  0
 25 26  1  0
  9 27  2  0
 27  5  1  0
 26 12  1  0
 24 19  1  0
M  END
>  <Compound_Key>  (1287) 
89

>  <Ki>  (1287) 
2.53

>  <database>  (1287) 
NewLiterature

>  <Document_ChEMBL_ID>  (1287) 
10.1021/acs.jmedchem.0c02265

$$$$

     RDKit          2D

 28 30  0  0  0  0  0  0  0  0999 V2000
   -7.8143    0.0713    0.0000 C   0  0  0  0  0  0  0  0  0  0  0  0
   -6.3166   -0.0120    0.0000 N   0  0  0  0  0  0  0  0  0  0  0  0
   -5.6399   -1.3506    0.0000 C   0  0  0  0  0  0  0  0  0  0  0  0
   -4.1422   -1.4339    0.0000 C   0  0  0  0  0  0  0  0  0  0  0  0
   -3.4655   -2.7726    0.0000 O   0  0  0  0  0  0  0  0  0  0  0  0
   -1.9678   -2.8559    0.0000 C   0  0  0  0  0  0  0  0  0  0  0  0
   -1.0201   -1.6932    0.0000 C   0  0  0  0  0  0  0  0  0  0  0  0
    0.3785   -2.2352    0.0000 C   0  0  0  0  0  0  0  0  0  0  0  0
    1.6391   -1.4222    0.0000 C   0  0  0  0  0  0  0  0  0  0  0  0
    2.9735   -2.1075    0.0000 O   0  0  0  0  0  0  0  0  0  0  0  0
    4.2341   -1.2945    0.0000 C   0  0  0  0  0  0  0  0  0  0  0  0
    5.5684   -1.9798    0.0000 C   0  0  0  0  0  0  0  0  0  0  0  0
    6.8290   -1.1668    0.0000 C   0  0  0  0  0  0  0  0  0  0  0  0
    6.7553    0.3314    0.0000 C   0  0  0  0  0  0  0  0  0  0  0  0
    5.4209    1.0166    0.0000 C   0  0  0  0  0  0  0  0  0  0  0  0
    5.3472    2.5148    0.0000 C   0  0  0  0  0  0  0  0  0  0  0  0
    5.2735    4.0130    0.0000 F   0  0  0  0  0  0  0  0  0  0  0  0
    6.8454    2.5885    0.0000 F   0  0  0  0  0  0  0  0  0  0  0  0
    3.8490    2.4411    0.0000 F   0  0  0  0  0  0  0  0  0  0  0  0
    4.1603    0.2037    0.0000 C   0  0  0  0  0  0  0  0  0  0  0  0
    0.2953   -3.7329    0.0000 O   0  0  0  0  0  0  0  0  0  0  0  0
   -1.1549   -4.1165    0.0000 N   0  0  0  0  0  0  0  0  0  0  0  0
   -5.4957    1.2434    0.0000 C   0  0  0  0  0  0  0  0  0  0  0  0
   -3.9980    1.1602    0.0000 C   0  0  0  0  0  0  0  0  0  0  0  0
   -3.1770    2.4156    0.0000 C   0  0  0  0  0  0  0  0  0  0  0  0
   -3.8537    3.7542    0.0000 C   0  0  0  0  0  0  0  0  0  0  0  0
   -5.3514    3.8375    0.0000 C   0  0  0  0  0  0  0  0  0  0  0  0
   -6.1724    2.5821    0.0000 C   0  0  0  0  0  0  0  0  0  0  0  0
  1  2  1  0
  2  3  1  0
  3  4  1  0
  4  5  1  0
  5  6  1  0
  6  7  1  0
  7  8  2  0
  8  9  1  0
  9 10  1  0
 10 11  1  0
 11 12  2  0
 12 13  1  0
 13 14  2  0
 14 15  1  0
 15 16  1  0
 16 17  1  0
 16 18  1  0
 16 19  1  0
 15 20  2  0
  8 21  1  0
 21 22  1  0
  2 23  1  0
 23 24  1  0
 24 25  1  0
 25 26  1  0
 26 27  1  0
 27 28  1  0
 22  6  2  0
 28 23  1  0
 20 11  1  0
M  END
>  <Compound_Key>  (1288) 
90

>  <Ki>  (1288) 
4.44

>  <database>  (1288) 
NewLiterature

>  <Document_ChEMBL_ID>  (1288) 
10.1021/acs.jmedchem.0c02265

$$$$

     RDKit          2D

 28 32  0  0  0  0  0  0  0  0999 V2000
    7.7666   -1.0772    0.0000 C   0  0  0  0  0  0  0  0  0  0  0  0
    6.9721   -2.3495    0.0000 C   0  0  0  0  0  0  0  0  0  0  0  0
    5.4730   -2.2976    0.0000 C   0  0  0  0  0  0  0  0  0  0  0  0
    4.7684   -0.9733    0.0000 C   0  0  0  0  0  0  0  0  0  0  0  0
    5.5630    0.2990    0.0000 C   0  0  0  0  0  0  0  0  0  0  0  0
    7.0621    0.2470    0.0000 C   0  0  0  0  0  0  0  0  0  0  0  0
    4.5984    1.4477    0.0000 C   0  0  0  0  0  0  0  0  0  0  0  0
    4.8068    2.9332    0.0000 C   0  0  0  0  0  0  0  0  0  0  0  0
    3.6245    3.8564    0.0000 C   0  0  0  0  0  0  0  0  0  0  0  0
    2.2339    3.2940    0.0000 C   0  0  0  0  0  0  0  0  0  0  0  0
    2.0255    1.8086    0.0000 C   0  0  0  0  0  0  0  0  0  0  0  0
    3.2078    0.8854    0.0000 C   0  0  0  0  0  0  0  0  0  0  0  0
    3.3129   -0.6109    0.0000 N   0  0  0  0  0  0  0  0  0  0  0  0
    2.1641   -1.5754    0.0000 C   0  0  0  0  0  0  0  0  0  0  0  0
    0.7544   -1.0628    0.0000 C   0  0  0  0  0  0  0  0  0  0  0  0
   -0.3944   -2.0273    0.0000 C   0  0  0  0  0  0  0  0  0  0  0  0
   -1.8041   -1.5147    0.0000 N   0  0  0  0  0  0  0  0  0  0  0  0
   -2.0650   -0.0375    0.0000 C   0  0  0  0  0  0  0  0  0  0  0  0
   -3.4746    0.4751    0.0000 C   0  0  0  0  0  0  0  0  0  0  0  0
   -4.6234   -0.4894    0.0000 N   0  0  0  0  0  0  0  0  0  0  0  0
   -6.0331    0.0232    0.0000 C   0  0  0  0  0  0  0  0  0  0  0  0
   -6.2940    1.5003    0.0000 C   0  0  0  0  0  0  0  0  0  0  0  0
   -7.7037    2.0129    0.0000 C   0  0  0  0  0  0  0  0  0  0  0  0
   -8.8525    1.0484    0.0000 C   0  0  0  0  0  0  0  0  0  0  0  0
   -8.5916   -0.4287    0.0000 C   0  0  0  0  0  0  0  0  0  0  0  0
   -7.1819   -0.9413    0.0000 C   0  0  0  0  0  0  0  0  0  0  0  0
   -4.3625   -1.9666    0.0000 C   0  0  0  0  0  0  0  0  0  0  0  0
   -2.9528   -2.4792    0.0000 C   0  0  0  0  0  0  0  0  0  0  0  0
  1  2  2  0
  2  3  1  0
  3  4  2  0
  4  5  1  0
  5  6  2  0
  5  7  1  0
  7  8  2  0
  8  9  1  0
  9 10  2  0
 10 11  1  0
 11 12  2  0
 12 13  1  0
 13 14  1  0
 14 15  1  0
 15 16  1  0
 16 17  1  0
 17 18  1  0
 18 19  1  0
 19 20  1  0
 20 21  1  0
 21 22  1  0
 22 23  1  0
 23 24  1  0
 24 25  1  0
 25 26  1  0
 20 27  1  0
 27 28  1  0
  6  1  1  0
 12  7  1  0
 28 17  1  0
 13  4  1  0
 26 21  1  0
M  END
>  <ChemBL_ID>  (1289) 
CHEMBL1188414

>  <Compound_Key>  (1289) 
F281

>  <Ki>  (1289) 
12.6

>  <database>  (1289) 
SRSLDB

>  <Document_ChEMBL_ID>  (1289) 
10.1021/acs.jmedchem.0c02265

$$$$

     RDKit          2D

 32 35  0  0  0  0  0  0  0  0999 V2000
   -9.7578   -4.4852    0.0000 C   0  0  0  0  0  0  0  0  0  0  0  0
   -8.3766   -3.9003    0.0000 C   0  0  0  0  0  0  0  0  0  0  0  0
   -8.1926   -2.4116    0.0000 C   0  0  0  0  0  0  0  0  0  0  0  0
   -6.8113   -1.8266    0.0000 O   0  0  0  0  0  0  0  0  0  0  0  0
   -6.6273   -0.3379    0.0000 C   0  0  0  0  0  0  0  0  0  0  0  0
   -7.8245    0.5658    0.0000 C   0  0  0  0  0  0  0  0  0  0  0  0
   -7.6405    2.0544    0.0000 C   0  0  0  0  0  0  0  0  0  0  0  0
   -6.2593    2.6394    0.0000 C   0  0  0  0  0  0  0  0  0  0  0  0
   -5.0620    1.7357    0.0000 C   0  0  0  0  0  0  0  0  0  0  0  0
   -5.2461    0.2470    0.0000 C   0  0  0  0  0  0  0  0  0  0  0  0
   -4.0489   -0.6567    0.0000 C   0  0  0  0  0  0  0  0  0  0  0  0
   -2.6676   -0.0717    0.0000 C   0  0  0  0  0  0  0  0  0  0  0  0
   -2.4836    1.4170    0.0000 N   0  0  0  0  0  0  0  0  0  0  0  0
   -1.1024    2.0019    0.0000 C   0  0  0  0  0  0  0  0  0  0  0  0
    0.0949    1.0982    0.0000 C   0  0  0  0  0  0  0  0  0  0  0  0
    1.4761    1.6832    0.0000 C   0  0  0  0  0  0  0  0  0  0  0  0
    2.6733    0.7795    0.0000 N   0  0  0  0  0  0  0  0  0  0  0  0
    2.4893   -0.7092    0.0000 C   0  0  0  0  0  0  0  0  0  0  0  0
    3.6865   -1.6129    0.0000 C   0  0  0  0  0  0  0  0  0  0  0  0
    5.0677   -1.0279    0.0000 C   0  0  0  0  0  0  0  0  0  0  0  0
    6.2649   -1.9316    0.0000 C   0  0  0  0  0  0  0  0  0  0  0  0
    7.6462   -1.3467    0.0000 C   0  0  0  0  0  0  0  0  0  0  0  0
    8.8434   -2.2504    0.0000 O   0  0  0  0  0  0  0  0  0  0  0  0
    8.6594   -3.7390    0.0000 C   0  0  0  0  0  0  0  0  0  0  0  0
    7.8302    0.1420    0.0000 C   0  0  0  0  0  0  0  0  0  0  0  0
    9.2114    0.7270    0.0000 O   0  0  0  0  0  0  0  0  0  0  0  0
    9.3955    2.2157    0.0000 C   0  0  0  0  0  0  0  0  0  0  0  0
    6.6330    1.0457    0.0000 C   0  0  0  0  0  0  0  0  0  0  0  0
    5.2518    0.4608    0.0000 C   0  0  0  0  0  0  0  0  0  0  0  0
    4.0545    1.3645    0.0000 C   0  0  0  0  0  0  0  0  0  0  0  0
   -3.6808    2.3207    0.0000 C   0  0  0  0  0  0  0  0  0  0  0  0
   -3.4968    3.8093    0.0000 O   0  0  0  0  0  0  0  0  0  0  0  0
  1  2  1  0
  2  3  1  0
  3  4  1  0
  4  5  1  0
  5  6  2  0
  6  7  1  0
  7  8  2  0
  8  9  1  0
  9 10  2  0
 10 11  1  0
 11 12  1  0
 12 13  1  0
 13 14  1  0
 14 15  1  0
 15 16  1  0
 16 17  1  0
 17 18  1  0
 18 19  1  0
 19 20  1  0
 20 21  2  0
 21 22  1  0
 22 23  1  0
 23 24  1  0
 22 25  2  0
 25 26  1  0
 26 27  1  0
 25 28  1  0
 28 29  2  0
 29 30  1  0
 13 31  1  0
 31 32  2  0
 10  5  1  0
 30 17  1  0
 31  9  1  0
 29 20  1  0
M  END
>  <Compound_Key>  (1290) 
3

>  <Ki>  (1290) 
9.24

>  <database>  (1290) 
NewLiterature

>  <Document_ChEMBL_ID>  (1290) 
10.4155/fmc-2018-0072

$$$$

     RDKit          2D

 30 33  0  0  0  0  0  0  0  0999 V2000
   -9.0204    0.0277    0.0000 C   0  0  0  0  0  0  0  0  0  0  0  0
   -7.9260   -0.9982    0.0000 O   0  0  0  0  0  0  0  0  0  0  0  0
   -6.4904   -0.5633    0.0000 C   0  0  0  0  0  0  0  0  0  0  0  0
   -6.1492    0.8973    0.0000 C   0  0  0  0  0  0  0  0  0  0  0  0
   -4.7136    1.3322    0.0000 C   0  0  0  0  0  0  0  0  0  0  0  0
   -3.6192    0.3063    0.0000 C   0  0  0  0  0  0  0  0  0  0  0  0
   -3.9604   -1.1543    0.0000 C   0  0  0  0  0  0  0  0  0  0  0  0
   -5.3960   -1.5892    0.0000 C   0  0  0  0  0  0  0  0  0  0  0  0
   -5.7372   -3.0498    0.0000 O   0  0  0  0  0  0  0  0  0  0  0  0
   -4.6429   -4.0757    0.0000 C   0  0  0  0  0  0  0  0  0  0  0  0
   -2.1836    0.7412    0.0000 C   0  0  0  0  0  0  0  0  0  0  0  0
   -1.8424    2.2018    0.0000 N   0  0  0  0  0  0  0  0  0  0  0  0
   -0.4068    2.6367    0.0000 C   0  0  0  0  0  0  0  0  0  0  0  0
    0.6876    1.6108    0.0000 C   0  0  0  0  0  0  0  0  0  0  0  0
    2.1232    2.0457    0.0000 C   0  0  0  0  0  0  0  0  0  0  0  0
    3.2175    1.0198    0.0000 N   0  0  0  0  0  0  0  0  0  0  0  0
    2.8763   -0.4409    0.0000 C   0  0  0  0  0  0  0  0  0  0  0  0
    3.9707   -1.4667    0.0000 C   0  0  0  0  0  0  0  0  0  0  0  0
    3.6295   -2.9274    0.0000 O   0  0  0  0  0  0  0  0  0  0  0  0
    2.1939   -3.3622    0.0000 C   0  0  0  0  0  0  0  0  0  0  0  0
    5.4063   -1.0319    0.0000 C   0  0  0  0  0  0  0  0  0  0  0  0
    6.5006   -2.0577    0.0000 C   0  0  0  0  0  0  0  0  0  0  0  0
    7.9362   -1.6229    0.0000 C   0  0  0  0  0  0  0  0  0  0  0  0
    8.2775   -0.1622    0.0000 C   0  0  0  0  0  0  0  0  0  0  0  0
    7.1831    0.8636    0.0000 C   0  0  0  0  0  0  0  0  0  0  0  0
    5.7475    0.4288    0.0000 C   0  0  0  0  0  0  0  0  0  0  0  0
    4.6531    1.4546    0.0000 C   0  0  0  0  0  0  0  0  0  0  0  0
    4.9943    2.9153    0.0000 O   0  0  0  0  0  0  0  0  0  0  0  0
   -2.9368    3.2277    0.0000 C   0  0  0  0  0  0  0  0  0  0  0  0
   -4.3724    2.7928    0.0000 C   0  0  0  0  0  0  0  0  0  0  0  0
  1  2  1  0
  2  3  1  0
  3  4  2  0
  4  5  1  0
  5  6  2  0
  6  7  1  0
  7  8  2  0
  8  9  1  0
  9 10  1  0
  6 11  1  0
 11 12  1  0
 12 13  1  0
 13 14  1  0
 14 15  1  0
 15 16  1  0
 16 17  1  0
 17 18  1  0
 18 19  1  0
 19 20  1  0
 18 21  1  0
 21 22  2  0
 22 23  1  0
 23 24  2  0
 24 25  1  0
 25 26  2  0
 26 27  1  0
 27 28  2  0
 12 29  1  0
 29 30  1  0
  8  3  1  0
 27 16  1  0
 30  5  1  0
 26 21  1  0
M  END
>  <Compound_Key>  (1291) 
4

>  <Ki>  (1291) 
5.74

>  <database>  (1291) 
NewLiterature

>  <Document_ChEMBL_ID>  (1291) 
10.4155/fmc-2018-0072

$$$$

     RDKit          2D

 25 27  0  0  0  0  0  0  0  0999 V2000
   -8.0352    0.9532    0.0000 C   0  0  0  0  0  0  0  0  0  0  0  0
   -7.1971   -0.2908    0.0000 O   0  0  0  0  0  0  0  0  0  0  0  0
   -5.7007   -0.1870    0.0000 C   0  0  0  0  0  0  0  0  0  0  0  0
   -5.0424    1.1608    0.0000 C   0  0  0  0  0  0  0  0  0  0  0  0
   -3.5460    1.2646    0.0000 C   0  0  0  0  0  0  0  0  0  0  0  0
   -2.7079    0.0205    0.0000 C   0  0  0  0  0  0  0  0  0  0  0  0
   -3.3662   -1.3273    0.0000 C   0  0  0  0  0  0  0  0  0  0  0  0
   -4.8626   -1.4311    0.0000 C   0  0  0  0  0  0  0  0  0  0  0  0
   -5.5210   -2.7789    0.0000 O   0  0  0  0  0  0  0  0  0  0  0  0
   -4.6829   -4.0229    0.0000 C   0  0  0  0  0  0  0  0  0  0  0  0
   -1.2115    0.1243    0.0000 C   0  0  0  0  0  0  0  0  0  0  0  0
   -0.5532    1.4721    0.0000 N   0  0  0  0  0  0  0  0  0  0  0  0
    0.9432    1.5759    0.0000 C   0  0  0  0  0  0  0  0  0  0  0  0
    1.7813    0.3319    0.0000 C   0  0  0  0  0  0  0  0  0  0  0  0
    3.2777    0.4357    0.0000 C   0  0  0  0  0  0  0  0  0  0  0  0
    3.9360    1.7835    0.0000 O   0  0  0  0  0  0  0  0  0  0  0  0
    4.1158   -0.8084    0.0000 N   0  0  0  0  0  0  0  0  0  0  0  0
    5.6122   -0.7046    0.0000 C   0  0  0  0  0  0  0  0  0  0  0  0
    6.4503   -1.9486    0.0000 C   0  0  0  0  0  0  0  0  0  0  0  0
    7.9467   -1.8448    0.0000 C   0  0  0  0  0  0  0  0  0  0  0  0
    8.6050   -0.4970    0.0000 C   0  0  0  0  0  0  0  0  0  0  0  0
    7.7669    0.7470    0.0000 C   0  0  0  0  0  0  0  0  0  0  0  0
    6.2705    0.6432    0.0000 C   0  0  0  0  0  0  0  0  0  0  0  0
   -1.3913    2.7162    0.0000 C   0  0  0  0  0  0  0  0  0  0  0  0
   -2.8877    2.6124    0.0000 C   0  0  0  0  0  0  0  0  0  0  0  0
  1  2  1  0
  2  3  1  0
  3  4  2  0
  4  5  1  0
  5  6  2  0
  6  7  1  0
  7  8  2  0
  8  9  1  0
  9 10  1  0
  6 11  1  0
 11 12  1  0
 12 13  1  0
 13 14  1  0
 14 15  1  0
 15 16  2  0
 15 17  1  0
 17 18  1  0
 18 19  2  0
 19 20  1  0
 20 21  2  0
 21 22  1  0
 22 23  2  0
 12 24  1  0
 24 25  1  0
  8  3  1  0
 23 18  1  0
 25  5  1  0
M  END
>  <Compound_Key>  (1292) 
8

>  <Ki>  (1292) 
278.0

>  <database>  (1292) 
NewLiterature

>  <Document_ChEMBL_ID>  (1292) 
10.4155/fmc-2018-0072

$$$$

     RDKit          2D

 27 29  0  0  0  0  0  0  0  0999 V2000
   -9.3318   -1.5796    0.0000 C   0  0  0  0  0  0  0  0  0  0  0  0
   -7.8321   -1.5500    0.0000 O   0  0  0  0  0  0  0  0  0  0  0  0
   -7.1078   -0.2365    0.0000 C   0  0  0  0  0  0  0  0  0  0  0  0
   -7.8833    1.0475    0.0000 C   0  0  0  0  0  0  0  0  0  0  0  0
   -7.1591    2.3611    0.0000 C   0  0  0  0  0  0  0  0  0  0  0  0
   -5.6594    2.3907    0.0000 C   0  0  0  0  0  0  0  0  0  0  0  0
   -4.8839    1.1067    0.0000 C   0  0  0  0  0  0  0  0  0  0  0  0
   -3.3842    1.1363    0.0000 N   0  0  0  0  0  0  0  0  0  0  0  0
   -2.6087   -0.1477    0.0000 C   0  0  0  0  0  0  0  0  0  0  0  0
   -3.3329   -1.4613    0.0000 O   0  0  0  0  0  0  0  0  0  0  0  0
   -1.1090   -0.1181    0.0000 C   0  0  0  0  0  0  0  0  0  0  0  0
   -0.3335   -1.4021    0.0000 C   0  0  0  0  0  0  0  0  0  0  0  0
    1.1662   -1.3725    0.0000 N   0  0  0  0  0  0  0  0  0  0  0  0
    1.9417   -2.6565    0.0000 C   0  0  0  0  0  0  0  0  0  0  0  0
    3.4414   -2.6269    0.0000 C   0  0  0  0  0  0  0  0  0  0  0  0
    4.1656   -1.3134    0.0000 C   0  0  0  0  0  0  0  0  0  0  0  0
    5.6653   -1.2838    0.0000 C   0  0  0  0  0  0  0  0  0  0  0  0
    6.3895    0.0298    0.0000 C   0  0  0  0  0  0  0  0  0  0  0  0
    7.8893    0.0594    0.0000 O   0  0  0  0  0  0  0  0  0  0  0  0
    8.6647   -1.2246    0.0000 C   0  0  0  0  0  0  0  0  0  0  0  0
    5.6141    1.3138    0.0000 C   0  0  0  0  0  0  0  0  0  0  0  0
    6.3383    2.6274    0.0000 O   0  0  0  0  0  0  0  0  0  0  0  0
    5.5628    3.9114    0.0000 C   0  0  0  0  0  0  0  0  0  0  0  0
    4.1144    1.2842    0.0000 C   0  0  0  0  0  0  0  0  0  0  0  0
    3.3901   -0.0294    0.0000 C   0  0  0  0  0  0  0  0  0  0  0  0
    1.8904   -0.0589    0.0000 C   0  0  0  0  0  0  0  0  0  0  0  0
   -5.6081   -0.2069    0.0000 C   0  0  0  0  0  0  0  0  0  0  0  0
  1  2  1  0
  2  3  1  0
  3  4  2  0
  4  5  1  0
  5  6  2  0
  6  7  1  0
  7  8  1  0
  8  9  1  0
  9 10  2  0
  9 11  1  0
 11 12  1  0
 12 13  1  0
 13 14  1  0
 14 15  1  0
 15 16  1  0
 16 17  2  0
 17 18  1  0
 18 19  1  0
 19 20  1  0
 18 21  2  0
 21 22  1  0
 22 23  1  0
 21 24  1  0
 24 25  2  0
 25 26  1  0
  7 27  2  0
 27  3  1  0
 26 13  1  0
 25 16  1  0
M  END
>  <Compound_Key>  (1293) 
8b

>  <Ki>  (1293) 
56.0

>  <database>  (1293) 
NewLiterature

>  <Document_ChEMBL_ID>  (1293) 
10.4155/fmc-2018-0072

$$$$

     RDKit          2D

 26 28  0  0  0  0  0  0  0  0999 V2000
   -8.4290    0.9214    0.0000 C   0  0  0  0  0  0  0  0  0  0  0  0
   -7.5840   -0.3180    0.0000 O   0  0  0  0  0  0  0  0  0  0  0  0
   -6.0882   -0.2058    0.0000 C   0  0  0  0  0  0  0  0  0  0  0  0
   -5.4374    1.1456    0.0000 C   0  0  0  0  0  0  0  0  0  0  0  0
   -3.9416    1.2577    0.0000 C   0  0  0  0  0  0  0  0  0  0  0  0
   -3.0966    0.0184    0.0000 C   0  0  0  0  0  0  0  0  0  0  0  0
   -3.7474   -1.3331    0.0000 C   0  0  0  0  0  0  0  0  0  0  0  0
   -5.2432   -1.4452    0.0000 C   0  0  0  0  0  0  0  0  0  0  0  0
   -5.8940   -2.7966    0.0000 O   0  0  0  0  0  0  0  0  0  0  0  0
   -5.0490   -4.0360    0.0000 C   0  0  0  0  0  0  0  0  0  0  0  0
   -1.6008    0.1305    0.0000 C   0  0  0  0  0  0  0  0  0  0  0  0
   -0.9500    1.4820    0.0000 N   0  0  0  0  0  0  0  0  0  0  0  0
    0.5458    1.5941    0.0000 C   0  0  0  0  0  0  0  0  0  0  0  0
    1.3908    0.3548    0.0000 C   0  0  0  0  0  0  0  0  0  0  0  0
    2.8866    0.4669    0.0000 C   0  0  0  0  0  0  0  0  0  0  0  0
    3.5374    1.8184    0.0000 O   0  0  0  0  0  0  0  0  0  0  0  0
    3.7316   -0.7725    0.0000 N   0  0  0  0  0  0  0  0  0  0  0  0
    5.2274   -0.6603    0.0000 C   0  0  0  0  0  0  0  0  0  0  0  0
    6.0724   -1.8997    0.0000 C   0  0  0  0  0  0  0  0  0  0  0  0
    7.5682   -1.7876    0.0000 C   0  0  0  0  0  0  0  0  0  0  0  0
    8.2191   -0.4361    0.0000 C   0  0  0  0  0  0  0  0  0  0  0  0
    9.7149   -0.3240    0.0000 F   0  0  0  0  0  0  0  0  0  0  0  0
    7.3740    0.8033    0.0000 C   0  0  0  0  0  0  0  0  0  0  0  0
    5.8782    0.6911    0.0000 C   0  0  0  0  0  0  0  0  0  0  0  0
   -1.7950    2.7213    0.0000 C   0  0  0  0  0  0  0  0  0  0  0  0
   -3.2908    2.6092    0.0000 C   0  0  0  0  0  0  0  0  0  0  0  0
  1  2  1  0
  2  3  1  0
  3  4  2  0
  4  5  1  0
  5  6  2  0
  6  7  1  0
  7  8  2  0
  8  9  1  0
  9 10  1  0
  6 11  1  0
 11 12  1  0
 12 13  1  0
 13 14  1  0
 14 15  1  0
 15 16  2  0
 15 17  1  0
 17 18  1  0
 18 19  2  0
 19 20  1  0
 20 21  2  0
 21 22  1  0
 21 23  1  0
 23 24  2  0
 12 25  1  0
 25 26  1  0
  8  3  1  0
 24 18  1  0
 26  5  1  0
M  END
>  <Compound_Key>  (1294) 
8c

>  <Ki>  (1294) 
50.3

>  <database>  (1294) 
NewLiterature

>  <Document_ChEMBL_ID>  (1294) 
10.4155/fmc-2018-0072

$$$$

     RDKit          2D

 24 26  0  0  0  0  0  0  0  0999 V2000
   -7.8836    0.9273    0.0000 C   0  0  0  0  0  0  0  0  0  0  0  0
   -7.0298   -0.3060    0.0000 O   0  0  0  0  0  0  0  0  0  0  0  0
   -5.5348   -0.1832    0.0000 C   0  0  0  0  0  0  0  0  0  0  0  0
   -4.8937    1.1729    0.0000 C   0  0  0  0  0  0  0  0  0  0  0  0
   -3.3988    1.2957    0.0000 C   0  0  0  0  0  0  0  0  0  0  0  0
   -2.5449    0.0625    0.0000 C   0  0  0  0  0  0  0  0  0  0  0  0
   -3.1860   -1.2936    0.0000 C   0  0  0  0  0  0  0  0  0  0  0  0
   -4.6810   -1.4164    0.0000 C   0  0  0  0  0  0  0  0  0  0  0  0
   -5.3221   -2.7725    0.0000 O   0  0  0  0  0  0  0  0  0  0  0  0
   -4.4683   -4.0058    0.0000 C   0  0  0  0  0  0  0  0  0  0  0  0
   -1.0499    0.1853    0.0000 C   0  0  0  0  0  0  0  0  0  0  0  0
   -0.4088    1.5414    0.0000 N   0  0  0  0  0  0  0  0  0  0  0  0
    1.0861    1.6642    0.0000 C   0  0  0  0  0  0  0  0  0  0  0  0
    1.9400    0.4309    0.0000 C   0  0  0  0  0  0  0  0  0  0  0  0
    3.4349    0.5537    0.0000 C   0  0  0  0  0  0  0  0  0  0  0  0
    4.2888   -0.6795    0.0000 N   0  0  0  0  0  0  0  0  0  0  0  0
    5.7838   -0.5567    0.0000 C   0  0  0  0  0  0  0  0  0  0  0  0
    6.6376   -1.7900    0.0000 C   0  0  0  0  0  0  0  0  0  0  0  0
    8.1326   -1.6671    0.0000 C   0  0  0  0  0  0  0  0  0  0  0  0
    8.7737   -0.3111    0.0000 C   0  0  0  0  0  0  0  0  0  0  0  0
    7.9198    0.9222    0.0000 C   0  0  0  0  0  0  0  0  0  0  0  0
    6.4249    0.7994    0.0000 C   0  0  0  0  0  0  0  0  0  0  0  0
   -1.2627    2.7746    0.0000 C   0  0  0  0  0  0  0  0  0  0  0  0
   -2.7576    2.6518    0.0000 C   0  0  0  0  0  0  0  0  0  0  0  0
  1  2  1  0
  2  3  1  0
  3  4  2  0
  4  5  1  0
  5  6  2  0
  6  7  1  0
  7  8  2  0
  8  9  1  0
  9 10  1  0
  6 11  1  0
 11 12  1  0
 12 13  1  0
 13 14  1  0
 14 15  1  0
 15 16  1  0
 16 17  1  0
 17 18  2  0
 18 19  1  0
 19 20  2  0
 20 21  1  0
 21 22  2  0
 12 23  1  0
 23 24  1  0
  8  3  1  0
 22 17  1  0
 24  5  1  0
M  END
>  <Compound_Key>  (1295) 
9a

>  <Ki>  (1295) 
3.58

>  <database>  (1295) 
NewLiterature

>  <Document_ChEMBL_ID>  (1295) 
10.4155/fmc-2018-0072

$$$$

     RDKit          2D

 19 24  0  0  0  0  0  0  0  0999 V2000
    5.7978   -0.8676    0.0000 C   0  0  0  0  0  0  0  0  0  0  0  0
    4.5975   -1.7671    0.0000 C   0  0  0  0  0  0  0  0  0  0  0  0
    3.2183   -1.1773    0.0000 C   0  0  0  0  0  0  0  0  0  0  0  0
    3.0395    0.3120    0.0000 C   0  0  0  0  0  0  0  0  0  0  0  0
    1.6603    0.9018    0.0000 C   0  0  0  0  0  0  0  0  0  0  0  0
    0.4599    0.0022    0.0000 N   0  0  0  0  0  0  0  0  0  0  0  0
   -0.9193    0.5920    0.0000 C   0  0  0  0  0  0  0  0  0  0  0  0
   -1.2528    2.0545    0.0000 C   0  0  0  0  0  0  0  0  0  0  0  0
   -1.7214    0.6295    0.0000 C   0  0  0  0  0  0  0  0  0  0  0  0
   -1.2630   -0.7987    0.0000 C   0  0  0  0  0  0  0  0  0  0  0  0
   -2.4796   -1.6760    0.0000 C   0  0  0  0  0  0  0  0  0  0  0  0
   -3.6900   -0.7900    0.0000 C   0  0  0  0  0  0  0  0  0  0  0  0
   -3.2214    0.6349    0.0000 C   0  0  0  0  0  0  0  0  0  0  0  0
   -3.6798    2.0631    0.0000 C   0  0  0  0  0  0  0  0  0  0  0  0
   -2.4632    2.9405    0.0000 C   0  0  0  0  0  0  0  0  0  0  0  0
   -4.5760   -2.0004    0.0000 C   0  0  0  0  0  0  0  0  0  0  0  0
   -3.3656   -2.8864    0.0000 C   0  0  0  0  0  0  0  0  0  0  0  0
    4.2398    1.2115    0.0000 C   0  0  0  0  0  0  0  0  0  0  0  0
    5.6190    0.6217    0.0000 C   0  0  0  0  0  0  0  0  0  0  0  0
  1  2  2  0
  2  3  1  0
  3  4  2  0
  4  5  1  0
  5  6  1  0
  6  7  1  0
  7  8  1  0
  8  9  1  0
  9 10  1  0
 10 11  1  0
 11 12  1  0
 12 13  1  0
 13 14  1  0
 14 15  1  0
 15 16  1  0
 16 17  1  0
  4 18  1  0
 18 19  2  0
 19  1  1  0
 17  7  1  0
 15  8  1  0
 13  9  1  0
 17 11  1  0
 16 12  1  0
M  END
>  <ChemBL_ID>  (1296) 
CHEMBL2432045

>  <Ki>  (1296) 
19.0

>  <database>  (1296) 
SRSLDB

$$$$

     RDKit          2D

 25 27  0  0  0  0  0  0  0  0999 V2000
   -8.2969    0.9120    0.0000 C   0  0  0  0  0  0  0  0  0  0  0  0
   -7.4397   -0.3189    0.0000 O   0  0  0  0  0  0  0  0  0  0  0  0
   -5.9451   -0.1920    0.0000 C   0  0  0  0  0  0  0  0  0  0  0  0
   -5.3077    1.1659    0.0000 C   0  0  0  0  0  0  0  0  0  0  0  0
   -3.8131    1.2928    0.0000 C   0  0  0  0  0  0  0  0  0  0  0  0
   -2.9558    0.0619    0.0000 C   0  0  0  0  0  0  0  0  0  0  0  0
   -3.5932   -1.2960    0.0000 C   0  0  0  0  0  0  0  0  0  0  0  0
   -5.0878   -1.4229    0.0000 C   0  0  0  0  0  0  0  0  0  0  0  0
   -5.7252   -2.7807    0.0000 O   0  0  0  0  0  0  0  0  0  0  0  0
   -4.8680   -4.0116    0.0000 C   0  0  0  0  0  0  0  0  0  0  0  0
   -1.4612    0.1888    0.0000 C   0  0  0  0  0  0  0  0  0  0  0  0
   -0.8238    1.5466    0.0000 N   0  0  0  0  0  0  0  0  0  0  0  0
    0.6708    1.6736    0.0000 C   0  0  0  0  0  0  0  0  0  0  0  0
    1.5280    0.4427    0.0000 C   0  0  0  0  0  0  0  0  0  0  0  0
    3.0226    0.5696    0.0000 C   0  0  0  0  0  0  0  0  0  0  0  0
    3.8799   -0.6613    0.0000 N   0  0  0  0  0  0  0  0  0  0  0  0
    5.3745   -0.5344    0.0000 C   0  0  0  0  0  0  0  0  0  0  0  0
    6.2317   -1.7653    0.0000 C   0  0  0  0  0  0  0  0  0  0  0  0
    7.7263   -1.6384    0.0000 C   0  0  0  0  0  0  0  0  0  0  0  0
    8.3637   -0.2806    0.0000 C   0  0  0  0  0  0  0  0  0  0  0  0
    9.8584   -0.1536    0.0000 F   0  0  0  0  0  0  0  0  0  0  0  0
    7.5065    0.9504    0.0000 C   0  0  0  0  0  0  0  0  0  0  0  0
    6.0119    0.8234    0.0000 C   0  0  0  0  0  0  0  0  0  0  0  0
   -1.6811    2.7776    0.0000 C   0  0  0  0  0  0  0  0  0  0  0  0
   -3.1757    2.6506    0.0000 C   0  0  0  0  0  0  0  0  0  0  0  0
  1  2  1  0
  2  3  1  0
  3  4  2  0
  4  5  1  0
  5  6  2  0
  6  7  1  0
  7  8  2  0
  8  9  1  0
  9 10  1  0
  6 11  1  0
 11 12  1  0
 12 13  1  0
 13 14  1  0
 14 15  1  0
 15 16  1  0
 16 17  1  0
 17 18  2  0
 18 19  1  0
 19 20  2  0
 20 21  1  0
 20 22  1  0
 22 23  2  0
 12 24  1  0
 24 25  1  0
  8  3  1  0
 23 17  1  0
 25  5  1  0
M  END
>  <Compound_Key>  (1297) 
9c

>  <Ki>  (1297) 
2.7

>  <database>  (1297) 
NewLiterature

>  <Document_ChEMBL_ID>  (1297) 
10.4155/fmc-2018-0072

$$$$

     RDKit          2D

 19 24  0  0  0  0  0  0  0  0999 V2000
    5.7978   -0.8676    0.0000 C   0  0  0  0  0  0  0  0  0  0  0  0
    4.5975   -1.7671    0.0000 C   0  0  0  0  0  0  0  0  0  0  0  0
    3.2183   -1.1773    0.0000 C   0  0  0  0  0  0  0  0  0  0  0  0
    3.0395    0.3120    0.0000 C   0  0  0  0  0  0  0  0  0  0  0  0
    1.6603    0.9018    0.0000 C   0  0  0  0  0  0  0  0  0  0  0  0
    0.4599    0.0022    0.0000 N   0  0  0  0  0  0  0  0  0  0  0  0
   -0.9193    0.5920    0.0000 C   0  0  0  0  0  0  0  0  0  0  0  0
   -1.2528    2.0545    0.0000 C   0  0  0  0  0  0  0  0  0  0  0  0
   -1.7214    0.6295    0.0000 C   0  0  0  0  0  0  0  0  0  0  0  0
   -1.2630   -0.7987    0.0000 C   0  0  0  0  0  0  0  0  0  0  0  0
   -2.4796   -1.6760    0.0000 C   0  0  0  0  0  0  0  0  0  0  0  0
   -3.6900   -0.7900    0.0000 C   0  0  0  0  0  0  0  0  0  0  0  0
   -3.2214    0.6349    0.0000 C   0  0  0  0  0  0  0  0  0  0  0  0
   -3.6798    2.0631    0.0000 C   0  0  0  0  0  0  0  0  0  0  0  0
   -2.4632    2.9405    0.0000 C   0  0  0  0  0  0  0  0  0  0  0  0
   -4.5760   -2.0004    0.0000 C   0  0  0  0  0  0  0  0  0  0  0  0
   -3.3656   -2.8864    0.0000 C   0  0  0  0  0  0  0  0  0  0  0  0
    4.2398    1.2115    0.0000 C   0  0  0  0  0  0  0  0  0  0  0  0
    5.6190    0.6217    0.0000 C   0  0  0  0  0  0  0  0  0  0  0  0
  1  2  1  0
  2  3  1  0
  3  4  1  0
  4  5  1  0
  5  6  1  0
  6  7  1  0
  7  8  1  0
  8  9  1  0
  9 10  1  0
 10 11  1  0
 11 12  1  0
 12 13  1  0
 13 14  1  0
 14 15  1  0
 15 16  1  0
 16 17  1  0
  4 18  1  0
 18 19  1  0
 19  1  1  0
 17  7  1  0
 15  8  1  0
 13  9  1  0
 17 11  1  0
 16 12  1  0
M  END
>  <ChemBL_ID>  (1298) 
CHEMBL2432038

>  <Ki>  (1298) 
1.9

>  <database>  (1298) 
SRSLDB

$$$$

     RDKit          2D

 29 31  0  0  0  0  0  0  0  0999 V2000
   -9.1227   -2.2521    0.0000 C   0  0  0  0  0  0  0  0  0  0  0  0
   -7.6250   -2.1696    0.0000 O   0  0  0  0  0  0  0  0  0  0  0  0
   -6.9476   -0.8313    0.0000 C   0  0  0  0  0  0  0  0  0  0  0  0
   -7.7679    0.4245    0.0000 C   0  0  0  0  0  0  0  0  0  0  0  0
   -7.0904    1.7628    0.0000 C   0  0  0  0  0  0  0  0  0  0  0  0
   -5.5927    1.8453    0.0000 C   0  0  0  0  0  0  0  0  0  0  0  0
   -4.7724    0.5895    0.0000 C   0  0  0  0  0  0  0  0  0  0  0  0
   -3.2747    0.6720    0.0000 N   0  0  0  0  0  0  0  0  0  0  0  0
   -2.4544   -0.5838    0.0000 C   0  0  0  0  0  0  0  0  0  0  0  0
   -0.9566   -0.5013    0.0000 C   0  0  0  0  0  0  0  0  0  0  0  0
   -0.1363   -1.7571    0.0000 C   0  0  0  0  0  0  0  0  0  0  0  0
    1.3614   -1.6746    0.0000 N   0  0  0  0  0  0  0  0  0  0  0  0
    2.1817   -2.9305    0.0000 C   0  0  0  0  0  0  0  0  0  0  0  0
    3.6794   -2.8480    0.0000 C   0  0  0  0  0  0  0  0  0  0  0  0
    4.3569   -1.5096    0.0000 C   0  0  0  0  0  0  0  0  0  0  0  0
    5.8546   -1.4271    0.0000 C   0  0  0  0  0  0  0  0  0  0  0  0
    6.5320   -0.0888    0.0000 C   0  0  0  0  0  0  0  0  0  0  0  0
    8.0297   -0.0063    0.0000 O   0  0  0  0  0  0  0  0  0  0  0  0
    8.8501   -1.2621    0.0000 C   0  0  0  0  0  0  0  0  0  0  0  0
    5.7117    1.1670    0.0000 C   0  0  0  0  0  0  0  0  0  0  0  0
    6.3891    2.5053    0.0000 O   0  0  0  0  0  0  0  0  0  0  0  0
    5.5688    3.7611    0.0000 C   0  0  0  0  0  0  0  0  0  0  0  0
    4.2140    1.0845    0.0000 C   0  0  0  0  0  0  0  0  0  0  0  0
    3.5366   -0.2538    0.0000 C   0  0  0  0  0  0  0  0  0  0  0  0
    2.0388   -0.3363    0.0000 C   0  0  0  0  0  0  0  0  0  0  0  0
   -2.5973    2.0103    0.0000 C   0  0  0  0  0  0  0  0  0  0  0  0
   -1.0995    2.0928    0.0000 C   0  0  0  0  0  0  0  0  0  0  0  0
   -3.4176    3.2661    0.0000 O   0  0  0  0  0  0  0  0  0  0  0  0
   -5.4498   -0.7488    0.0000 C   0  0  0  0  0  0  0  0  0  0  0  0
  1  2  1  0
  2  3  1  0
  3  4  2  0
  4  5  1  0
  5  6  2  0
  6  7  1  0
  7  8  1  0
  8  9  1  0
  9 10  1  0
 10 11  1  0
 11 12  1  0
 12 13  1  0
 13 14  1  0
 14 15  1  0
 15 16  2  0
 16 17  1  0
 17 18  1  0
 18 19  1  0
 17 20  2  0
 20 21  1  0
 21 22  1  0
 20 23  1  0
 23 24  2  0
 24 25  1  0
  8 26  1  0
 26 27  1  0
 26 28  2  0
  7 29  2  0
 29  3  1  0
 25 12  1  0
 24 15  1  0
M  END
>  <Compound_Key>  (1299) 
10b

>  <Ki>  (1299) 
40.2

>  <database>  (1299) 
NewLiterature

>  <Document_ChEMBL_ID>  (1299) 
10.4155/fmc-2018-0072

$$$$

     RDKit          2D

 28 30  0  0  0  0  0  0  0  0999 V2000
   -8.6538    0.9100    0.0000 C   0  0  0  0  0  0  0  0  0  0  0  0
   -7.7590   -0.2938    0.0000 O   0  0  0  0  0  0  0  0  0  0  0  0
   -6.2690   -0.1208    0.0000 C   0  0  0  0  0  0  0  0  0  0  0  0
   -5.6738    1.2561    0.0000 C   0  0  0  0  0  0  0  0  0  0  0  0
   -4.1838    1.4291    0.0000 C   0  0  0  0  0  0  0  0  0  0  0  0
   -3.2890    0.2252    0.0000 C   0  0  0  0  0  0  0  0  0  0  0  0
   -3.8842   -1.1516    0.0000 C   0  0  0  0  0  0  0  0  0  0  0  0
   -5.3741   -1.3247    0.0000 C   0  0  0  0  0  0  0  0  0  0  0  0
   -5.9693   -2.7015    0.0000 O   0  0  0  0  0  0  0  0  0  0  0  0
   -5.0745   -3.9054    0.0000 C   0  0  0  0  0  0  0  0  0  0  0  0
   -1.7990    0.3983    0.0000 C   0  0  0  0  0  0  0  0  0  0  0  0
   -1.2039    1.7751    0.0000 N   0  0  0  0  0  0  0  0  0  0  0  0
    0.2861    1.9482    0.0000 C   0  0  0  0  0  0  0  0  0  0  0  0
    1.1810    0.7443    0.0000 C   0  0  0  0  0  0  0  0  0  0  0  0
    2.6709    0.9173    0.0000 C   0  0  0  0  0  0  0  0  0  0  0  0
    3.5658   -0.2865    0.0000 N   0  0  0  0  0  0  0  0  0  0  0  0
    2.9706   -1.6634    0.0000 C   0  0  0  0  0  0  0  0  0  0  0  0
    1.4806   -1.8364    0.0000 C   0  0  0  0  0  0  0  0  0  0  0  0
    3.8655   -2.8672    0.0000 O   0  0  0  0  0  0  0  0  0  0  0  0
    5.0558   -0.1135    0.0000 C   0  0  0  0  0  0  0  0  0  0  0  0
    5.9506   -1.3173    0.0000 C   0  0  0  0  0  0  0  0  0  0  0  0
    7.4406   -1.1443    0.0000 C   0  0  0  0  0  0  0  0  0  0  0  0
    8.0357    0.2326    0.0000 C   0  0  0  0  0  0  0  0  0  0  0  0
    9.5257    0.4056    0.0000 F   0  0  0  0  0  0  0  0  0  0  0  0
    7.1409    1.4364    0.0000 C   0  0  0  0  0  0  0  0  0  0  0  0
    5.6509    1.2634    0.0000 C   0  0  0  0  0  0  0  0  0  0  0  0
   -2.0987    2.9790    0.0000 C   0  0  0  0  0  0  0  0  0  0  0  0
   -3.5887    2.8060    0.0000 C   0  0  0  0  0  0  0  0  0  0  0  0
  1  2  1  0
  2  3  1  0
  3  4  2  0
  4  5  1  0
  5  6  2  0
  6  7  1  0
  7  8  2  0
  8  9  1  0
  9 10  1  0
  6 11  1  0
 11 12  1  0
 12 13  1  0
 13 14  1  0
 14 15  1  0
 15 16  1  0
 16 17  1  0
 17 18  1  0
 17 19  2  0
 16 20  1  0
 20 21  2  0
 21 22  1  0
 22 23  2  0
 23 24  1  0
 23 25  1  0
 25 26  2  0
 12 27  1  0
 27 28  1  0
  8  3  1  0
 26 20  1  0
 28  5  1  0
M  END
>  <Compound_Key>  (1300) 
10c

>  <Ki>  (1300) 
83.7

>  <database>  (1300) 
NewLiterature

>  <Document_ChEMBL_ID>  (1300) 
10.4155/fmc-2018-0072

$$$$

     RDKit          2D

 28 30  0  0  0  0  0  0  0  0999 V2000
   -6.6250   -1.6297    0.0000 C   0  0  0  0  0  0  0  0  0  0  0  0
   -5.4175   -2.5197    0.0000 C   0  0  0  0  0  0  0  0  0  0  0  0
   -4.0431   -1.9190    0.0000 N   0  0  0  0  0  0  0  0  0  0  0  0
   -2.8356   -2.8089    0.0000 C   0  0  0  0  0  0  0  0  0  0  0  0
   -1.4612   -2.2082    0.0000 C   0  0  0  0  0  0  0  0  0  0  0  0
   -0.2537   -3.0982    0.0000 C   0  0  0  0  0  0  0  0  0  0  0  0
    1.1208   -2.4974    0.0000 N   0  0  0  0  0  0  0  0  0  0  0  0
    2.3282   -3.3874    0.0000 C   0  0  0  0  0  0  0  0  0  0  0  0
    3.7027   -2.7867    0.0000 C   0  0  0  0  0  0  0  0  0  0  0  0
    3.8697   -1.2960    0.0000 C   0  0  0  0  0  0  0  0  0  0  0  0
    5.2441   -0.6953    0.0000 C   0  0  0  0  0  0  0  0  0  0  0  0
    5.4111    0.7954    0.0000 C   0  0  0  0  0  0  0  0  0  0  0  0
    6.7856    1.3961    0.0000 O   0  0  0  0  0  0  0  0  0  0  0  0
    7.9931    0.5062    0.0000 C   0  0  0  0  0  0  0  0  0  0  0  0
    4.2037    1.6854    0.0000 C   0  0  0  0  0  0  0  0  0  0  0  0
    4.3706    3.1760    0.0000 O   0  0  0  0  0  0  0  0  0  0  0  0
    3.1632    4.0660    0.0000 C   0  0  0  0  0  0  0  0  0  0  0  0
    2.8292    1.0846    0.0000 C   0  0  0  0  0  0  0  0  0  0  0  0
    2.6622   -0.4060    0.0000 C   0  0  0  0  0  0  0  0  0  0  0  0
    1.2878   -1.0068    0.0000 C   0  0  0  0  0  0  0  0  0  0  0  0
   -3.8761   -0.4283    0.0000 C   0  0  0  0  0  0  0  0  0  0  0  0
   -2.5016    0.1724    0.0000 C   0  0  0  0  0  0  0  0  0  0  0  0
   -2.3347    1.6631    0.0000 C   0  0  0  0  0  0  0  0  0  0  0  0
   -3.5421    2.5531    0.0000 C   0  0  0  0  0  0  0  0  0  0  0  0
   -4.9166    1.9523    0.0000 C   0  0  0  0  0  0  0  0  0  0  0  0
   -6.1241    2.8423    0.0000 O   0  0  0  0  0  0  0  0  0  0  0  0
   -5.9571    4.3330    0.0000 C   0  0  0  0  0  0  0  0  0  0  0  0
   -5.0836    0.4617    0.0000 C   0  0  0  0  0  0  0  0  0  0  0  0
  1  2  1  0
  2  3  1  0
  3  4  1  0
  4  5  1  0
  5  6  1  0
  6  7  1  0
  7  8  1  0
  8  9  1  0
  9 10  1  0
 10 11  2  0
 11 12  1  0
 12 13  1  0
 13 14  1  0
 12 15  2  0
 15 16  1  0
 16 17  1  0
 15 18  1  0
 18 19  2  0
 19 20  1  0
  3 21  1  0
 21 22  2  0
 22 23  1  0
 23 24  2  0
 24 25  1  0
 25 26  1  0
 26 27  1  0
 25 28  2  0
 20  7  1  0
 28 21  1  0
 19 10  1  0
M  END
>  <Compound_Key>  (1301) 
11b

>  <Ki>  (1301) 
11.3

>  <database>  (1301) 
NewLiterature

>  <Document_ChEMBL_ID>  (1301) 
10.4155/fmc-2018-0072

$$$$

     RDKit          2D

 22 25  0  0  0  0  0  0  0  0999 V2000
   -6.0632    2.0054    0.0000 C   0  0  0  0  0  0  0  0  0  0  0  0
   -4.5802    2.2307    0.0000 C   0  0  0  0  0  0  0  0  0  0  0  0
   -3.6436    1.0590    0.0000 C   0  0  0  0  0  0  0  0  0  0  0  0
   -4.1900   -0.3379    0.0000 C   0  0  0  0  0  0  0  0  0  0  0  0
   -3.2534   -1.5096    0.0000 C   0  0  0  0  0  0  0  0  0  0  0  0
   -1.7704   -1.2843    0.0000 N   0  0  0  0  0  0  0  0  0  0  0  0
   -0.8338   -2.4559    0.0000 C   0  0  0  0  0  0  0  0  0  0  0  0
    0.6492   -2.2306    0.0000 C   0  0  0  0  0  0  0  0  0  0  0  0
    1.1956   -0.8337    0.0000 C   0  0  0  0  0  0  0  0  0  0  0  0
    2.1322   -2.0053    0.0000 C   0  0  0  0  0  0  0  0  0  0  0  0
    3.6152   -1.7801    0.0000 C   0  0  0  0  0  0  0  0  0  0  0  0
    4.1616   -0.3831    0.0000 C   0  0  0  0  0  0  0  0  0  0  0  0
    5.6445   -0.1578    0.0000 C   0  0  0  0  0  0  0  0  0  0  0  0
    6.1909    1.2391    0.0000 C   0  0  0  0  0  0  0  0  0  0  0  0
    5.2543    2.4108    0.0000 C   0  0  0  0  0  0  0  0  0  0  0  0
    3.7714    2.1855    0.0000 C   0  0  0  0  0  0  0  0  0  0  0  0
    3.2250    0.7885    0.0000 C   0  0  0  0  0  0  0  0  0  0  0  0
    1.7420    0.5633    0.0000 S   0  0  0  0  0  0  0  0  0  0  0  0
    0.2590    0.3380    0.0000 C   0  0  0  0  0  0  0  0  0  0  0  0
   -1.2240    0.1127    0.0000 C   0  0  0  0  0  0  0  0  0  0  0  0
   -5.6729   -0.5632    0.0000 C   0  0  0  0  0  0  0  0  0  0  0  0
   -6.6095    0.6085    0.0000 C   0  0  0  0  0  0  0  0  0  0  0  0
  1  2  2  0
  2  3  1  0
  3  4  2  0
  4  5  1  0
  5  6  1  0
  6  7  1  0
  7  8  1  0
  8  9  1  0
  9 10  1  0
 10 11  1  0
 11 12  1  0
 12 13  2  0
 13 14  1  0
 14 15  2  0
 15 16  1  0
 16 17  2  0
 17 18  1  0
  9 19  1  0
 19 20  1  0
  4 21  1  0
 21 22  2  0
 22  1  1  0
 20  6  1  0
 18  9  1  0
 17 12  1  0
M  END
>  <ChemBL_ID>  (1302) 
CHEMBL39900

>  <Compound_Key>  (1302) 
2

>  <Ki>  (1302) 
416.0

>  <database>  (1302) 
CHEMBL

>  <Assay_ChEMBL_ID>  (1302) 
CHEMBL805217

>  <Document_ChEMBL_ID>  (1302) 
CHEMBL1131209

$$$$

     RDKit          2D

 30 33  0  0  0  0  0  0  0  0999 V2000
   -2.0592   -4.6690    0.0000 C   0  0  0  0  0  0  0  0  0  0  0  0
   -1.9556   -3.1726    0.0000 O   0  0  0  0  0  0  0  0  0  0  0  0
   -3.1998   -2.3348    0.0000 C   0  0  0  0  0  0  0  0  0  0  0  0
   -4.5475   -2.9933    0.0000 C   0  0  0  0  0  0  0  0  0  0  0  0
   -5.7917   -2.1555    0.0000 C   0  0  0  0  0  0  0  0  0  0  0  0
   -5.6882   -0.6590    0.0000 C   0  0  0  0  0  0  0  0  0  0  0  0
   -4.3405   -0.0005    0.0000 C   0  0  0  0  0  0  0  0  0  0  0  0
   -3.0963   -0.8383    0.0000 C   0  0  0  0  0  0  0  0  0  0  0  0
   -4.2370    1.4959    0.0000 N   0  0  0  0  0  0  0  0  0  0  0  0
   -2.8893    2.1545    0.0000 C   0  0  0  0  0  0  0  0  0  0  0  0
   -1.6451    1.3167    0.0000 C   0  0  0  0  0  0  0  0  0  0  0  0
   -0.2974    1.9752    0.0000 C   0  0  0  0  0  0  0  0  0  0  0  0
    0.9468    1.1374    0.0000 N   0  0  0  0  0  0  0  0  0  0  0  0
    0.8433   -0.3590    0.0000 C   0  0  0  0  0  0  0  0  0  0  0  0
    2.0874   -1.1969    0.0000 C   0  0  0  0  0  0  0  0  0  0  0  0
    3.4351   -0.5383    0.0000 C   0  0  0  0  0  0  0  0  0  0  0  0
    4.6793   -1.3762    0.0000 C   0  0  0  0  0  0  0  0  0  0  0  0
    6.0270   -0.7176    0.0000 C   0  0  0  0  0  0  0  0  0  0  0  0
    7.2712   -1.5555    0.0000 O   0  0  0  0  0  0  0  0  0  0  0  0
    7.1677   -3.0519    0.0000 C   0  0  0  0  0  0  0  0  0  0  0  0
    6.1305    0.7788    0.0000 C   0  0  0  0  0  0  0  0  0  0  0  0
    7.4782    1.4374    0.0000 O   0  0  0  0  0  0  0  0  0  0  0  0
    7.5817    2.9338    0.0000 C   0  0  0  0  0  0  0  0  0  0  0  0
    4.8863    1.6167    0.0000 C   0  0  0  0  0  0  0  0  0  0  0  0
    3.5387    0.9581    0.0000 C   0  0  0  0  0  0  0  0  0  0  0  0
    2.2945    1.7959    0.0000 C   0  0  0  0  0  0  0  0  0  0  0  0
   -5.4812    2.3338    0.0000 C   0  0  0  0  0  0  0  0  0  0  0  0
   -5.3777    3.8302    0.0000 O   0  0  0  0  0  0  0  0  0  0  0  0
   -6.8289    1.6752    0.0000 C   0  0  0  0  0  0  0  0  0  0  0  0
   -6.9324    0.1788    0.0000 C   0  0  0  0  0  0  0  0  0  0  0  0
  1  2  1  0
  2  3  1  0
  3  4  2  0
  4  5  1  0
  5  6  2  0
  6  7  1  0
  7  8  2  0
  7  9  1  0
  9 10  1  0
 10 11  1  0
 11 12  1  0
 12 13  1  0
 13 14  1  0
 14 15  1  0
 15 16  1  0
 16 17  2  0
 17 18  1  0
 18 19  1  0
 19 20  1  0
 18 21  2  0
 21 22  1  0
 22 23  1  0
 21 24  1  0
 24 25  2  0
 25 26  1  0
  9 27  1  0
 27 28  2  0
 27 29  1  0
 29 30  1  0
  8  3  1  0
 26 13  1  0
 30  6  1  0
 25 16  1  0
M  END
>  <Compound_Key>  (1303) 
12b

>  <Ki>  (1303) 
18.6

>  <database>  (1303) 
NewLiterature

>  <Document_ChEMBL_ID>  (1303) 
10.4155/fmc-2018-0072

$$$$

     RDKit          2D

 29 32  0  0  0  0  0  0  0  0999 V2000
   -8.8565    0.8289    0.0000 C   0  0  0  0  0  0  0  0  0  0  0  0
   -7.9382   -0.3571    0.0000 O   0  0  0  0  0  0  0  0  0  0  0  0
   -6.4519   -0.1548    0.0000 C   0  0  0  0  0  0  0  0  0  0  0  0
   -5.8839    1.2335    0.0000 C   0  0  0  0  0  0  0  0  0  0  0  0
   -4.3976    1.4358    0.0000 C   0  0  0  0  0  0  0  0  0  0  0  0
   -3.4793    0.2498    0.0000 C   0  0  0  0  0  0  0  0  0  0  0  0
   -4.0472   -1.1386    0.0000 C   0  0  0  0  0  0  0  0  0  0  0  0
   -5.5335   -1.3409    0.0000 C   0  0  0  0  0  0  0  0  0  0  0  0
   -6.1015   -2.7292    0.0000 O   0  0  0  0  0  0  0  0  0  0  0  0
   -5.1831   -3.9152    0.0000 C   0  0  0  0  0  0  0  0  0  0  0  0
   -1.9930    0.4521    0.0000 C   0  0  0  0  0  0  0  0  0  0  0  0
   -1.4250    1.8404    0.0000 N   0  0  0  0  0  0  0  0  0  0  0  0
    0.0613    2.0427    0.0000 C   0  0  0  0  0  0  0  0  0  0  0  0
    0.9796    0.8567    0.0000 C   0  0  0  0  0  0  0  0  0  0  0  0
    2.4659    1.0590    0.0000 C   0  0  0  0  0  0  0  0  0  0  0  0
    3.3843   -0.1271    0.0000 N   0  0  0  0  0  0  0  0  0  0  0  0
    2.8163   -1.5154    0.0000 C   0  0  0  0  0  0  0  0  0  0  0  0
    1.3300   -1.7177    0.0000 O   0  0  0  0  0  0  0  0  0  0  0  0
    3.7347   -2.7014    0.0000 C   0  0  0  0  0  0  0  0  0  0  0  0
    5.2209   -2.4991    0.0000 C   0  0  0  0  0  0  0  0  0  0  0  0
    5.7889   -1.1108    0.0000 C   0  0  0  0  0  0  0  0  0  0  0  0
    7.2752   -0.9085    0.0000 C   0  0  0  0  0  0  0  0  0  0  0  0
    7.8432    0.4798    0.0000 C   0  0  0  0  0  0  0  0  0  0  0  0
    9.3294    0.6821    0.0000 F   0  0  0  0  0  0  0  0  0  0  0  0
    6.9248    1.6658    0.0000 C   0  0  0  0  0  0  0  0  0  0  0  0
    5.4385    1.4635    0.0000 C   0  0  0  0  0  0  0  0  0  0  0  0
    4.8706    0.0752    0.0000 C   0  0  0  0  0  0  0  0  0  0  0  0
   -2.3434    3.0264    0.0000 C   0  0  0  0  0  0  0  0  0  0  0  0
   -3.8297    2.8241    0.0000 C   0  0  0  0  0  0  0  0  0  0  0  0
  1  2  1  0
  2  3  1  0
  3  4  2  0
  4  5  1  0
  5  6  2  0
  6  7  1  0
  7  8  2  0
  8  9  1  0
  9 10  1  0
  6 11  1  0
 11 12  1  0
 12 13  1  0
 13 14  1  0
 14 15  1  0
 15 16  1  0
 16 17  1  0
 17 18  2  0
 17 19  1  0
 19 20  1  0
 20 21  1  0
 21 22  2  0
 22 23  1  0
 23 24  1  0
 23 25  2  0
 25 26  1  0
 26 27  2  0
 12 28  1  0
 28 29  1  0
  8  3  1  0
 27 16  1  0
 29  5  1  0
 27 21  1  0
M  END
>  <Compound_Key>  (1304) 
12c

>  <Ki>  (1304) 
34.2

>  <database>  (1304) 
NewLiterature

>  <Document_ChEMBL_ID>  (1304) 
10.4155/fmc-2018-0072

$$$$

     RDKit          2D

 29 32  0  0  0  0  0  0  0  0999 V2000
   -8.3356   -3.6986    0.0000 C   0  0  0  0  0  0  0  0  0  0  0  0
   -6.9310   -3.1721    0.0000 O   0  0  0  0  0  0  0  0  0  0  0  0
   -6.6847   -1.6925    0.0000 C   0  0  0  0  0  0  0  0  0  0  0  0
   -7.8429   -0.7394    0.0000 C   0  0  0  0  0  0  0  0  0  0  0  0
   -7.5966    0.7403    0.0000 C   0  0  0  0  0  0  0  0  0  0  0  0
   -6.1920    1.2668    0.0000 C   0  0  0  0  0  0  0  0  0  0  0  0
   -5.0338    0.3136    0.0000 C   0  0  0  0  0  0  0  0  0  0  0  0
   -5.2801   -1.1660    0.0000 C   0  0  0  0  0  0  0  0  0  0  0  0
   -3.6292    0.8401    0.0000 N   0  0  0  0  0  0  0  0  0  0  0  0
   -2.4710   -0.1130    0.0000 C   0  0  0  0  0  0  0  0  0  0  0  0
   -1.0664    0.4135    0.0000 C   0  0  0  0  0  0  0  0  0  0  0  0
    0.0918   -0.5396    0.0000 C   0  0  0  0  0  0  0  0  0  0  0  0
    1.4964   -0.0131    0.0000 N   0  0  0  0  0  0  0  0  0  0  0  0
    1.7427    1.4665    0.0000 C   0  0  0  0  0  0  0  0  0  0  0  0
    3.1473    1.9930    0.0000 C   0  0  0  0  0  0  0  0  0  0  0  0
    4.3055    1.0398    0.0000 C   0  0  0  0  0  0  0  0  0  0  0  0
    5.7101    1.5663    0.0000 C   0  0  0  0  0  0  0  0  0  0  0  0
    6.8683    0.6132    0.0000 C   0  0  0  0  0  0  0  0  0  0  0  0
    8.2729    1.1397    0.0000 O   0  0  0  0  0  0  0  0  0  0  0  0
    9.4311    0.1866    0.0000 C   0  0  0  0  0  0  0  0  0  0  0  0
    6.6220   -0.8664    0.0000 C   0  0  0  0  0  0  0  0  0  0  0  0
    7.7802   -1.8196    0.0000 O   0  0  0  0  0  0  0  0  0  0  0  0
    7.5339   -3.2992    0.0000 C   0  0  0  0  0  0  0  0  0  0  0  0
    5.2174   -1.3929    0.0000 C   0  0  0  0  0  0  0  0  0  0  0  0
    4.0592   -0.4398    0.0000 C   0  0  0  0  0  0  0  0  0  0  0  0
    2.6546   -0.9663    0.0000 C   0  0  0  0  0  0  0  0  0  0  0  0
   -3.3829    2.3198    0.0000 C   0  0  0  0  0  0  0  0  0  0  0  0
   -4.5412    3.2729    0.0000 C   0  0  0  0  0  0  0  0  0  0  0  0
   -5.9457    2.7464    0.0000 C   0  0  0  0  0  0  0  0  0  0  0  0
  1  2  1  0
  2  3  1  0
  3  4  2  0
  4  5  1  0
  5  6  2  0
  6  7  1  0
  7  8  2  0
  7  9  1  0
  9 10  1  0
 10 11  1  0
 11 12  1  0
 12 13  1  0
 13 14  1  0
 14 15  1  0
 15 16  1  0
 16 17  2  0
 17 18  1  0
 18 19  1  0
 19 20  1  0
 18 21  2  0
 21 22  1  0
 22 23  1  0
 21 24  1  0
 24 25  2  0
 25 26  1  0
  9 27  1  0
 27 28  1  0
 28 29  1  0
  8  3  1  0
 26 13  1  0
 29  6  1  0
 25 16  1  0
M  END
>  <Compound_Key>  (1305) 
13b

>  <Ki>  (1305) 
1.42

>  <database>  (1305) 
NewLiterature

>  <Document_ChEMBL_ID>  (1305) 
10.4155/fmc-2018-0072

$$$$

     RDKit          2D

 28 31  0  0  0  0  0  0  0  0999 V2000
    4.5243   -4.5919    0.0000 C   0  0  0  0  0  0  0  0  0  0  0  0
    3.5873   -3.4206    0.0000 O   0  0  0  0  0  0  0  0  0  0  0  0
    4.1331   -2.0234    0.0000 C   0  0  0  0  0  0  0  0  0  0  0  0
    5.6161   -1.7976    0.0000 O   0  0  0  0  0  0  0  0  0  0  0  0
    3.1961   -0.8521    0.0000 C   0  0  0  0  0  0  0  0  0  0  0  0
    4.1869    0.2741    0.0000 C   0  0  0  0  0  0  0  0  0  0  0  0
    5.6577   -0.0209    0.0000 C   0  0  0  0  0  0  0  0  0  0  0  0
    6.6485    1.1053    0.0000 C   0  0  0  0  0  0  0  0  0  0  0  0
    6.1686    2.5264    0.0000 C   0  0  0  0  0  0  0  0  0  0  0  0
    4.6979    2.8214    0.0000 C   0  0  0  0  0  0  0  0  0  0  0  0
    3.7070    1.6952    0.0000 C   0  0  0  0  0  0  0  0  0  0  0  0
    1.8799   -1.5715    0.0000 C   0  0  0  0  0  0  0  0  0  0  0  0
    1.9150   -0.0719    0.0000 C   0  0  0  0  0  0  0  0  0  0  0  0
    1.1956    1.2443    0.0000 C   0  0  0  0  0  0  0  0  0  0  0  0
   -0.3040    1.2794    0.0000 N   0  0  0  0  0  0  0  0  0  0  0  0
   -1.0234    2.5957    0.0000 C   0  0  0  0  0  0  0  0  0  0  0  0
   -2.5230    2.6308    0.0000 C   0  0  0  0  0  0  0  0  0  0  0  0
   -3.3032    1.3497    0.0000 C   0  0  0  0  0  0  0  0  0  0  0  0
   -4.4293    2.3405    0.0000 O   0  0  0  0  0  0  0  0  0  0  0  0
   -4.4745    0.4126    0.0000 C   0  0  0  0  0  0  0  0  0  0  0  0
   -5.8716    0.9585    0.0000 C   0  0  0  0  0  0  0  0  0  0  0  0
   -7.0429    0.0215    0.0000 C   0  0  0  0  0  0  0  0  0  0  0  0
   -6.8171   -1.4614    0.0000 C   0  0  0  0  0  0  0  0  0  0  0  0
   -7.9884   -2.3984    0.0000 Cl  0  0  0  0  0  0  0  0  0  0  0  0
   -5.4200   -2.0073    0.0000 C   0  0  0  0  0  0  0  0  0  0  0  0
   -4.2487   -1.0703    0.0000 C   0  0  0  0  0  0  0  0  0  0  0  0
   -2.5838    0.0334    0.0000 C   0  0  0  0  0  0  0  0  0  0  0  0
   -1.0842   -0.0017    0.0000 C   0  0  0  0  0  0  0  0  0  0  0  0
  1  2  1  0
  2  3  1  0
  3  4  2  0
  5  3  1  1
  5  6  1  0
  6  7  2  0
  7  8  1  0
  8  9  2  0
  9 10  1  0
 10 11  2  0
  5 12  1  0
 12 13  1  0
 13 14  1  1
 14 15  1  0
 15 16  1  0
 16 17  1  0
 17 18  1  0
 18 19  1  0
 18 20  1  0
 20 21  2  0
 21 22  1  0
 22 23  2  0
 23 24  1  0
 23 25  1  0
 25 26  2  0
 18 27  1  0
 27 28  1  0
 13  5  1  0
 28 15  1  0
 11  6  1  0
 26 20  1  0
M  END
>  <Compound_Key>  (1306) 
3, (+)-MR200

>  <Ki>  (1306) 
21.9

>  <database>  (1306) 
NewLiterature

>  <Document_ChEMBL_ID>  (1306) 
10.4155/fmc-2017-0164

$$$$

     RDKit          2D

 27 30  0  0  0  0  0  0  0  0999 V2000
    4.4465   -4.4740    0.0000 C   0  0  0  0  0  0  0  0  0  0  0  0
    3.4548   -3.3487    0.0000 O   0  0  0  0  0  0  0  0  0  0  0  0
    3.9335   -1.9271    0.0000 C   0  0  0  0  0  0  0  0  0  0  0  0
    5.4040   -1.6309    0.0000 O   0  0  0  0  0  0  0  0  0  0  0  0
    2.9418   -0.8017    0.0000 C   0  0  0  0  0  0  0  0  0  0  0  0
    3.8778    0.3703    0.0000 C   0  0  0  0  0  0  0  0  0  0  0  0
    5.3609    0.1457    0.0000 C   0  0  0  0  0  0  0  0  0  0  0  0
    6.2970    1.3178    0.0000 C   0  0  0  0  0  0  0  0  0  0  0  0
    5.7499    2.7145    0.0000 C   0  0  0  0  0  0  0  0  0  0  0  0
    4.2669    2.9391    0.0000 C   0  0  0  0  0  0  0  0  0  0  0  0
    3.3308    1.7670    0.0000 C   0  0  0  0  0  0  0  0  0  0  0  0
    1.6613   -1.5830    0.0000 C   0  0  0  0  0  0  0  0  0  0  0  0
    1.6250   -0.0834    0.0000 C   0  0  0  0  0  0  0  0  0  0  0  0
    0.8437    1.1970    0.0000 C   0  0  0  0  0  0  0  0  0  0  0  0
   -0.6559    1.1607    0.0000 N   0  0  0  0  0  0  0  0  0  0  0  0
   -1.4371    2.4412    0.0000 C   0  0  0  0  0  0  0  0  0  0  0  0
   -2.9367    2.4048    0.0000 C   0  0  0  0  0  0  0  0  0  0  0  0
   -3.6550    1.0880    0.0000 C   0  0  0  0  0  0  0  0  0  0  0  0
   -4.8271    2.0241    0.0000 O   0  0  0  0  0  0  0  0  0  0  0  0
   -4.7804    0.0963    0.0000 C   0  0  0  0  0  0  0  0  0  0  0  0
   -6.2019    0.5750    0.0000 C   0  0  0  0  0  0  0  0  0  0  0  0
   -7.3273   -0.4168    0.0000 C   0  0  0  0  0  0  0  0  0  0  0  0
   -7.0311   -1.8872    0.0000 C   0  0  0  0  0  0  0  0  0  0  0  0
   -5.6095   -2.3660    0.0000 C   0  0  0  0  0  0  0  0  0  0  0  0
   -4.4842   -1.3742    0.0000 C   0  0  0  0  0  0  0  0  0  0  0  0
   -2.8737   -0.1925    0.0000 C   0  0  0  0  0  0  0  0  0  0  0  0
   -1.3742   -0.1561    0.0000 C   0  0  0  0  0  0  0  0  0  0  0  0
  1  2  1  0
  2  3  1  0
  3  4  2  0
  5  3  1  6
  5  6  1  0
  6  7  2  0
  7  8  1  0
  8  9  2  0
  9 10  1  0
 10 11  2  0
  5 12  1  0
 12 13  1  0
 13 14  1  6
 14 15  1  0
 15 16  1  0
 16 17  1  0
 17 18  1  0
 18 19  1  0
 18 20  1  0
 20 21  2  0
 21 22  1  0
 22 23  2  0
 23 24  1  0
 24 25  2  0
 18 26  1  0
 26 27  1  0
 13  5  1  0
 27 15  1  0
 11  6  1  0
 25 20  1  0
M  END
>  <Compound_Key>  (1307) 
4, ()-MRV3

>  <Ki>  (1307) 
571.0

>  <database>  (1307) 
NewLiterature

>  <Document_ChEMBL_ID>  (1307) 
10.4155/fmc-2017-0164

$$$$

     RDKit          2D

 25 27  0  0  0  0  0  0  0  0999 V2000
   -3.5540    2.1462    0.0000 O   0  0  0  0  0  0  0  0  0  0  0  0
   -4.0326    0.7246    0.0000 C   0  0  0  0  0  0  0  0  0  0  0  0
   -3.0408   -0.4007    0.0000 C   0  0  0  0  0  0  0  0  0  0  0  0
   -1.5703   -0.1044    0.0000 C   0  0  0  0  0  0  0  0  0  0  0  0
   -0.5785   -1.2297    0.0000 C   0  0  0  0  0  0  0  0  0  0  0  0
    0.8920   -0.9334    0.0000 N   0  0  0  0  0  0  0  0  0  0  0  0
    1.8838   -2.0587    0.0000 C   0  0  0  0  0  0  0  0  0  0  0  0
    3.3542   -1.7624    0.0000 C   0  0  0  0  0  0  0  0  0  0  0  0
    3.8328   -0.3408    0.0000 N   0  0  0  0  0  0  0  0  0  0  0  0
    5.3033   -0.0445    0.0000 C   0  0  0  0  0  0  0  0  0  0  0  0
    6.2951   -1.1697    0.0000 N   0  0  0  0  0  0  0  0  0  0  0  0
    7.7656   -0.8734    0.0000 C   0  0  0  0  0  0  0  0  0  0  0  0
    8.2442    0.5482    0.0000 C   0  0  0  0  0  0  0  0  0  0  0  0
    9.7146    0.8445    0.0000 F   0  0  0  0  0  0  0  0  0  0  0  0
    7.2523    1.6734    0.0000 C   0  0  0  0  0  0  0  0  0  0  0  0
    5.7819    1.3771    0.0000 N   0  0  0  0  0  0  0  0  0  0  0  0
    2.8410    0.7845    0.0000 C   0  0  0  0  0  0  0  0  0  0  0  0
    1.3706    0.4882    0.0000 C   0  0  0  0  0  0  0  0  0  0  0  0
   -5.5030    0.4283    0.0000 C   0  0  0  0  0  0  0  0  0  0  0  0
   -6.4949    1.5535    0.0000 C   0  0  0  0  0  0  0  0  0  0  0  0
   -7.9653    1.2572    0.0000 C   0  0  0  0  0  0  0  0  0  0  0  0
   -8.4439   -0.1644    0.0000 C   0  0  0  0  0  0  0  0  0  0  0  0
   -9.9144   -0.4607    0.0000 F   0  0  0  0  0  0  0  0  0  0  0  0
   -7.4521   -1.2896    0.0000 C   0  0  0  0  0  0  0  0  0  0  0  0
   -5.9816   -0.9933    0.0000 C   0  0  0  0  0  0  0  0  0  0  0  0
  1  2  1  0
  2  3  1  0
  3  4  1  0
  4  5  1  0
  5  6  1  0
  6  7  1  0
  7  8  1  0
  8  9  1  0
  9 10  1  0
 10 11  2  0
 11 12  1  0
 12 13  2  0
 13 14  1  0
 13 15  1  0
 15 16  2  0
  9 17  1  0
 17 18  1  0
  2 19  1  0
 19 20  2  0
 20 21  1  0
 21 22  2  0
 22 23  1  0
 22 24  1  0
 24 25  2  0
 18  6  1  0
 25 19  1  0
 16 10  1  0
M  END
>  <Compound_Key>  (1308) 
6, BMY-14,802

>  <Ki>  (1308) 
51.0

>  <database>  (1308) 
NewLiterature

>  <Document_ChEMBL_ID>  (1308) 
10.4155/fmc-2017-0164

$$$$

     RDKit          2D

 35 37  0  0  0  0  0  0  0  0999 V2000
    2.5687    4.1012    0.0000 C   0  0  0  0  0  0  0  0  0  0  0  0
    1.0785    3.9298    0.0000 C   0  0  0  0  0  0  0  0  0  0  0  0
    0.4818    2.5536    0.0000 C   0  0  0  0  0  0  0  0  0  0  0  0
   -1.0083    2.3822    0.0000 C   0  0  0  0  0  0  0  0  0  0  0  0
   -1.9019    3.5870    0.0000 C   0  0  0  0  0  0  0  0  0  0  0  0
   -1.3052    4.9632    0.0000 C   0  0  0  0  0  0  0  0  0  0  0  0
   -2.1987    6.1681    0.0000 C   0  0  0  0  0  0  0  0  0  0  0  0
   -1.6050    1.0059    0.0000 C   0  0  0  0  0  0  0  0  0  0  0  0
   -0.7115   -0.1989    0.0000 O   0  0  0  0  0  0  0  0  0  0  0  0
   -3.0952    0.8346    0.0000 O   0  0  0  0  0  0  0  0  0  0  0  0
   -3.6918   -0.5417    0.0000 C   0  0  0  0  0  0  0  0  0  0  0  0
   -2.7983   -1.7465    0.0000 C   0  0  0  0  0  0  0  0  0  0  0  0
   -1.3081   -1.5751    0.0000 C   0  0  0  0  0  0  0  0  0  0  0  0
   -0.4146   -2.7800    0.0000 C   0  0  0  0  0  0  0  0  0  0  0  0
    1.0756   -2.6086    0.0000 N   0  0  0  0  0  0  0  0  0  0  0  0
    1.9691   -3.8134    0.0000 C   0  0  0  0  0  0  0  0  0  0  0  0
    3.4592   -3.6420    0.0000 C   0  0  0  0  0  0  0  0  0  0  0  0
    4.0559   -2.2658    0.0000 C   0  0  0  0  0  0  0  0  0  0  0  0
    5.3076   -3.0924    0.0000 O   0  0  0  0  0  0  0  0  0  0  0  0
    5.0873   -1.1766    0.0000 C   0  0  0  0  0  0  0  0  0  0  0  0
    6.5462   -1.5252    0.0000 C   0  0  0  0  0  0  0  0  0  0  0  0
    7.5776   -0.4361    0.0000 C   0  0  0  0  0  0  0  0  0  0  0  0
    7.1500    1.0017    0.0000 C   0  0  0  0  0  0  0  0  0  0  0  0
    8.1814    2.0908    0.0000 Cl  0  0  0  0  0  0  0  0  0  0  0  0
    5.6911    1.3503    0.0000 C   0  0  0  0  0  0  0  0  0  0  0  0
    4.6597    0.2611    0.0000 C   0  0  0  0  0  0  0  0  0  0  0  0
    3.1624   -1.0610    0.0000 C   0  0  0  0  0  0  0  0  0  0  0  0
    1.6722   -1.2323    0.0000 C   0  0  0  0  0  0  0  0  0  0  0  0
   -5.1820   -0.7131    0.0000 C   0  0  0  0  0  0  0  0  0  0  0  0
   -6.0755    0.4918    0.0000 C   0  0  0  0  0  0  0  0  0  0  0  0
   -7.5657    0.3204    0.0000 C   0  0  0  0  0  0  0  0  0  0  0  0
   -8.1624   -1.0558    0.0000 C   0  0  0  0  0  0  0  0  0  0  0  0
   -9.6525   -1.2272    0.0000 F   0  0  0  0  0  0  0  0  0  0  0  0
   -7.2688   -2.2607    0.0000 C   0  0  0  0  0  0  0  0  0  0  0  0
   -5.7787   -2.0893    0.0000 C   0  0  0  0  0  0  0  0  0  0  0  0
  1  2  1  0
  2  3  1  0
  3  4  1  0
  4  5  1  0
  5  6  1  0
  6  7  1  0
  4  8  1  0
  8  9  2  0
  8 10  1  0
 10 11  1  0
 11 12  1  0
 12 13  1  0
 13 14  1  0
 14 15  1  0
 15 16  1  0
 16 17  1  0
 17 18  1  0
 18 19  1  0
 18 20  1  0
 20 21  2  0
 21 22  1  0
 22 23  2  0
 23 24  1  0
 23 25  1  0
 25 26  2  0
 18 27  1  0
 27 28  1  0
 11 29  1  0
 29 30  2  0
 30 31  1  0
 31 32  2  0
 32 33  1  0
 32 34  1  0
 34 35  2  0
 28 15  1  0
 35 29  1  0
 26 20  1  0
M  END
>  <Compound_Key>  (1309) 
MRJF22

>  <Ki>  (1309) 
124.0

>  <database>  (1309) 
NewLiterature

>  <Document_ChEMBL_ID>  (1309) 
10.4155/fmc-2017-0164

$$$$

     RDKit          2D

 20 21  0  0  0  0  0  0  0  0999 V2000
   -2.9610    3.3220    0.0000 C   0  0  0  0  0  0  0  0  0  0  0  0
   -1.4899    3.0289    0.0000 C   0  0  0  0  0  0  0  0  0  0  0  0
   -1.0082    1.6084    0.0000 N   0  0  0  0  0  0  0  0  0  0  0  0
    0.4629    1.3154    0.0000 C   0  0  0  0  0  0  0  0  0  0  0  0
    0.9447   -0.1052    0.0000 C   0  0  0  0  0  0  0  0  0  0  0  0
    2.4157   -0.3982    0.0000 C   0  0  0  0  0  0  0  0  0  0  0  0
    2.8975   -1.8188    0.0000 C   0  0  0  0  0  0  0  0  0  0  0  0
    4.3686   -2.1118    0.0000 C   0  0  0  0  0  0  0  0  0  0  0  0
    5.3579   -0.9844    0.0000 C   0  0  0  0  0  0  0  0  0  0  0  0
    6.8290   -1.2774    0.0000 Cl  0  0  0  0  0  0  0  0  0  0  0  0
    4.8762    0.4362    0.0000 C   0  0  0  0  0  0  0  0  0  0  0  0
    5.8655    1.5637    0.0000 Cl  0  0  0  0  0  0  0  0  0  0  0  0
    3.4051    0.7292    0.0000 C   0  0  0  0  0  0  0  0  0  0  0  0
   -1.9975    0.4809    0.0000 C   0  0  0  0  0  0  0  0  0  0  0  0
   -3.4686    0.7740    0.0000 C   0  0  0  0  0  0  0  0  0  0  0  0
   -4.4580   -0.3535    0.0000 N   0  0  0  0  0  0  0  0  0  0  0  0
   -4.1273   -1.8166    0.0000 C   0  0  0  0  0  0  0  0  0  0  0  0
   -5.4167   -2.5832    0.0000 C   0  0  0  0  0  0  0  0  0  0  0  0
   -6.5442   -1.5938    0.0000 C   0  0  0  0  0  0  0  0  0  0  0  0
   -5.9516   -0.2158    0.0000 C   0  0  0  0  0  0  0  0  0  0  0  0
  1  2  1  0
  2  3  1  0
  3  4  1  0
  4  5  1  0
  5  6  1  0
  6  7  2  0
  7  8  1  0
  8  9  2  0
  9 10  1  0
  9 11  1  0
 11 12  1  0
 11 13  2  0
  3 14  1  0
 14 15  1  0
 15 16  1  0
 16 17  1  0
 17 18  1  0
 18 19  1  0
 19 20  1  0
 13  6  1  0
 20 16  1  0
M  END
>  <Compound_Key>  (1310) 
BD1067

>  <Ki>  (1310) 
39.0

>  <database>  (1310) 
NewLiterature

>  <Document_ChEMBL_ID>  (1310) 
10.4155/fmc-2017-0164

$$$$

     RDKit          2D

 18 19  0  0  0  0  0  0  0  0999 V2000
   -6.8484   -0.9991    0.0000 Cl  0  0  0  0  0  0  0  0  0  0  0  0
   -5.4869   -0.3696    0.0000 C   0  0  0  0  0  0  0  0  0  0  0  0
   -5.3512    1.1242    0.0000 C   0  0  0  0  0  0  0  0  0  0  0  0
   -3.9896    1.7536    0.0000 C   0  0  0  0  0  0  0  0  0  0  0  0
   -2.7638    0.8892    0.0000 C   0  0  0  0  0  0  0  0  0  0  0  0
   -1.4022    1.5186    0.0000 C   0  0  0  0  0  0  0  0  0  0  0  0
   -0.1763    0.6542    0.0000 C   0  0  0  0  0  0  0  0  0  0  0  0
    1.1852    1.2836    0.0000 N   0  0  0  0  0  0  0  0  0  0  0  0
    2.4111    0.4192    0.0000 C   0  0  0  0  0  0  0  0  0  0  0  0
    3.7726    1.0486    0.0000 C   0  0  0  0  0  0  0  0  0  0  0  0
    4.9985    0.1842    0.0000 N   0  0  0  0  0  0  0  0  0  0  0  0
    6.4184    0.6678    0.0000 C   0  0  0  0  0  0  0  0  0  0  0  0
    7.3172   -0.5331    0.0000 C   0  0  0  0  0  0  0  0  0  0  0  0
    6.4527   -1.7590    0.0000 C   0  0  0  0  0  0  0  0  0  0  0  0
    5.0197   -1.3157    0.0000 C   0  0  0  0  0  0  0  0  0  0  0  0
   -2.8994   -0.6047    0.0000 C   0  0  0  0  0  0  0  0  0  0  0  0
   -4.2610   -1.2341    0.0000 C   0  0  0  0  0  0  0  0  0  0  0  0
   -4.3967   -2.7279    0.0000 Cl  0  0  0  0  0  0  0  0  0  0  0  0
  1  2  1  0
  2  3  2  0
  3  4  1  0
  4  5  2  0
  5  6  1  0
  6  7  1  0
  7  8  1  0
  8  9  1  0
  9 10  1  0
 10 11  1  0
 11 12  1  0
 12 13  1  0
 13 14  1  0
 14 15  1  0
  5 16  1  0
 16 17  2  0
 17 18  1  0
 17  2  1  0
 15 11  1  0
M  END
>  <Compound_Key>  (1311) 
BD1060

>  <Ki>  (1311) 
156.0

>  <database>  (1311) 
NewLiterature

>  <Document_ChEMBL_ID>  (1311) 
10.4155/fmc-2017-0164

$$$$

     RDKit          2D

 20 21  0  0  0  0  0  0  0  0999 V2000
   -3.7145    2.1071    0.0000 C   0  0  0  0  0  0  0  0  0  0  0  0
   -2.3186    1.5580    0.0000 C   0  0  0  0  0  0  0  0  0  0  0  0
   -2.0962    0.0746    0.0000 C   0  0  0  0  0  0  0  0  0  0  0  0
   -3.2697   -0.8597    0.0000 N   0  0  0  0  0  0  0  0  0  0  0  0
   -3.2036   -2.3583    0.0000 C   0  0  0  0  0  0  0  0  0  0  0  0
   -4.6084   -2.8842    0.0000 C   0  0  0  0  0  0  0  0  0  0  0  0
   -5.5427   -1.7107    0.0000 C   0  0  0  0  0  0  0  0  0  0  0  0
   -4.7153   -0.4595    0.0000 C   0  0  0  0  0  0  0  0  0  0  0  0
   -1.1451    2.4923    0.0000 N   0  0  0  0  0  0  0  0  0  0  0  0
   -1.3675    3.9757    0.0000 C   0  0  0  0  0  0  0  0  0  0  0  0
    0.2508    1.9431    0.0000 C   0  0  0  0  0  0  0  0  0  0  0  0
    0.4731    0.4597    0.0000 C   0  0  0  0  0  0  0  0  0  0  0  0
    1.8690   -0.0894    0.0000 C   0  0  0  0  0  0  0  0  0  0  0  0
    2.0914   -1.5728    0.0000 C   0  0  0  0  0  0  0  0  0  0  0  0
    3.4873   -2.1220    0.0000 C   0  0  0  0  0  0  0  0  0  0  0  0
    4.6607   -1.1877    0.0000 C   0  0  0  0  0  0  0  0  0  0  0  0
    6.0566   -1.7368    0.0000 Cl  0  0  0  0  0  0  0  0  0  0  0  0
    4.4384    0.2957    0.0000 C   0  0  0  0  0  0  0  0  0  0  0  0
    5.6119    1.2300    0.0000 Cl  0  0  0  0  0  0  0  0  0  0  0  0
    3.0425    0.8449    0.0000 C   0  0  0  0  0  0  0  0  0  0  0  0
  2  1  1  1
  2  3  1  0
  3  4  1  0
  4  5  1  0
  5  6  1  0
  6  7  1  0
  7  8  1  0
  2  9  1  0
  9 10  1  0
  9 11  1  0
 11 12  1  0
 12 13  1  0
 13 14  2  0
 14 15  1  0
 15 16  2  0
 16 17  1  0
 16 18  1  0
 18 19  1  0
 18 20  2  0
  8  4  1  0
 20 13  1  0
M  END
>  <Compound_Key>  (1312) 
LR172

>  <Ki>  (1312) 
2.0

>  <database>  (1312) 
NewLiterature

>  <Document_ChEMBL_ID>  (1312) 
10.4155/fmc-2017-0164

$$$$

     RDKit          2D

 19 21  0  0  0  0  0  0  0  0999 V2000
    6.8078    0.2231    0.0000 Cl  0  0  0  0  0  0  0  0  0  0  0  0
    5.3345   -0.0585    0.0000 C   0  0  0  0  0  0  0  0  0  0  0  0
    4.8417   -1.4752    0.0000 C   0  0  0  0  0  0  0  0  0  0  0  0
    3.3684   -1.7568    0.0000 C   0  0  0  0  0  0  0  0  0  0  0  0
    2.3878   -0.6216    0.0000 C   0  0  0  0  0  0  0  0  0  0  0  0
    0.9145   -0.9032    0.0000 C   0  0  0  0  0  0  0  0  0  0  0  0
   -0.0660    0.2319    0.0000 C   0  0  0  0  0  0  0  0  0  0  0  0
   -1.5394   -0.0496    0.0000 N   0  0  0  0  0  0  0  0  0  0  0  0
   -2.0322   -1.4664    0.0000 C   0  0  0  0  0  0  0  0  0  0  0  0
   -3.5055   -1.7480    0.0000 C   0  0  0  0  0  0  0  0  0  0  0  0
   -4.4860   -0.6128    0.0000 N   0  0  0  0  0  0  0  0  0  0  0  0
   -5.9857   -0.5819    0.0000 C   0  0  0  0  0  0  0  0  0  0  0  0
   -6.4198    0.8539    0.0000 C   0  0  0  0  0  0  0  0  0  0  0  0
   -5.1883    1.7104    0.0000 C   0  0  0  0  0  0  0  0  0  0  0  0
   -3.9932    0.8039    0.0000 C   0  0  0  0  0  0  0  0  0  0  0  0
   -2.5199    1.0855    0.0000 C   0  0  0  0  0  0  0  0  0  0  0  0
    2.8806    0.7951    0.0000 C   0  0  0  0  0  0  0  0  0  0  0  0
    4.3540    1.0767    0.0000 C   0  0  0  0  0  0  0  0  0  0  0  0
    4.8468    2.4934    0.0000 Cl  0  0  0  0  0  0  0  0  0  0  0  0
  1  2  1  0
  2  3  2  0
  3  4  1  0
  4  5  2  0
  5  6  1  0
  6  7  1  0
  7  8  1  0
  8  9  1  0
  9 10  1  0
 10 11  1  0
 11 12  1  0
 12 13  1  0
 13 14  1  0
 15 14  1  6
 15 16  1  0
  5 17  1  0
 17 18  2  0
 18 19  1  0
 18  2  1  0
 16  8  1  0
 15 11  1  0
M  END
>  <Compound_Key>  (1313) 
BD1018

>  <Ki>  (1313) 
49.0

>  <database>  (1313) 
NewLiterature

>  <Document_ChEMBL_ID>  (1313) 
10.4155/fmc-2017-0164

$$$$

     RDKit          2D

 22 24  0  0  0  0  0  0  0  0999 V2000
   -7.3254    0.0925    0.0000 Cl  0  0  0  0  0  0  0  0  0  0  0  0
   -5.8475    0.3488    0.0000 C   0  0  0  0  0  0  0  0  0  0  0  0
   -5.3305    1.7569    0.0000 C   0  0  0  0  0  0  0  0  0  0  0  0
   -3.8526    2.0133    0.0000 C   0  0  0  0  0  0  0  0  0  0  0  0
   -2.8916    0.8616    0.0000 C   0  0  0  0  0  0  0  0  0  0  0  0
   -1.4137    1.1180    0.0000 C   0  0  0  0  0  0  0  0  0  0  0  0
   -0.4527   -0.0338    0.0000 C   0  0  0  0  0  0  0  0  0  0  0  0
    1.0252    0.2226    0.0000 N   0  0  0  0  0  0  0  0  0  0  0  0
    1.9862   -0.9291    0.0000 C   0  0  0  0  0  0  0  0  0  0  0  0
    1.4693   -2.3372    0.0000 C   0  0  0  0  0  0  0  0  0  0  0  0
    2.4303   -3.4890    0.0000 C   0  0  0  0  0  0  0  0  0  0  0  0
    3.9082   -3.2326    0.0000 C   0  0  0  0  0  0  0  0  0  0  0  0
    4.4251   -1.8245    0.0000 C   0  0  0  0  0  0  0  0  0  0  0  0
    3.4641   -0.6728    0.0000 C   0  0  0  0  0  0  0  0  0  0  0  0
    3.9811    0.7353    0.0000 N   0  0  0  0  0  0  0  0  0  0  0  0
    3.1457    1.9812    0.0000 C   0  0  0  0  0  0  0  0  0  0  0  0
    4.0725    3.1607    0.0000 C   0  0  0  0  0  0  0  0  0  0  0  0
    5.4806    2.6437    0.0000 C   0  0  0  0  0  0  0  0  0  0  0  0
    5.4241    1.1448    0.0000 C   0  0  0  0  0  0  0  0  0  0  0  0
   -3.4086   -0.5465    0.0000 C   0  0  0  0  0  0  0  0  0  0  0  0
   -4.8865   -0.8029    0.0000 C   0  0  0  0  0  0  0  0  0  0  0  0
   -5.4034   -2.2110    0.0000 Cl  0  0  0  0  0  0  0  0  0  0  0  0
  1  2  1  0
  2  3  2  0
  3  4  1  0
  4  5  2  0
  5  6  1  0
  6  7  1  0
  7  8  1  0
  9  8  1  6
  9 10  1  0
 10 11  1  0
 11 12  1  0
 12 13  1  0
 13 14  1  0
 14 15  1  6
 15 16  1  0
 16 17  1  0
 17 18  1  0
 18 19  1  0
  5 20  1  0
 20 21  2  0
 21 22  1  0
 21  2  1  0
 14  9  1  0
 19 15  1  0
M  END
>  <Compound_Key>  (1314) 
LR132

>  <Ki>  (1314) 
701.0

>  <database>  (1314) 
NewLiterature

>  <Document_ChEMBL_ID>  (1314) 
10.4155/fmc-2017-0164

$$$$

     RDKit          2D

 20 21  0  0  0  0  0  0  0  0999 V2000
   -3.7145    2.1071    0.0000 C   0  0  0  0  0  0  0  0  0  0  0  0
   -2.3186    1.5580    0.0000 C   0  0  0  0  0  0  0  0  0  0  0  0
   -2.0962    0.0746    0.0000 C   0  0  0  0  0  0  0  0  0  0  0  0
   -3.2697   -0.8597    0.0000 N   0  0  0  0  0  0  0  0  0  0  0  0
   -3.2036   -2.3583    0.0000 C   0  0  0  0  0  0  0  0  0  0  0  0
   -4.6084   -2.8842    0.0000 C   0  0  0  0  0  0  0  0  0  0  0  0
   -5.5427   -1.7107    0.0000 C   0  0  0  0  0  0  0  0  0  0  0  0
   -4.7153   -0.4595    0.0000 C   0  0  0  0  0  0  0  0  0  0  0  0
   -1.1451    2.4923    0.0000 N   0  0  0  0  0  0  0  0  0  0  0  0
   -1.3675    3.9757    0.0000 C   0  0  0  0  0  0  0  0  0  0  0  0
    0.2508    1.9431    0.0000 C   0  0  0  0  0  0  0  0  0  0  0  0
    0.4731    0.4597    0.0000 C   0  0  0  0  0  0  0  0  0  0  0  0
    1.8690   -0.0894    0.0000 C   0  0  0  0  0  0  0  0  0  0  0  0
    2.0914   -1.5728    0.0000 C   0  0  0  0  0  0  0  0  0  0  0  0
    3.4873   -2.1220    0.0000 C   0  0  0  0  0  0  0  0  0  0  0  0
    4.6607   -1.1877    0.0000 C   0  0  0  0  0  0  0  0  0  0  0  0
    6.0566   -1.7368    0.0000 Cl  0  0  0  0  0  0  0  0  0  0  0  0
    4.4384    0.2957    0.0000 C   0  0  0  0  0  0  0  0  0  0  0  0
    5.6119    1.2300    0.0000 Cl  0  0  0  0  0  0  0  0  0  0  0  0
    3.0425    0.8449    0.0000 C   0  0  0  0  0  0  0  0  0  0  0  0
  1  2  1  0
  2  3  1  0
  3  4  1  0
  4  5  1  0
  5  6  1  0
  6  7  1  0
  7  8  1  0
  2  9  1  0
  9 10  1  0
  9 11  1  0
 11 12  1  0
 12 13  1  0
 13 14  2  0
 14 15  1  0
 15 16  2  0
 16 17  1  0
 16 18  1  0
 18 19  1  0
 18 20  2  0
  8  4  1  0
 20 13  1  0
M  END
>  <Compound_Key>  (1315) 
LR176

>  <Ki>  (1315) 
44.0

>  <database>  (1315) 
NewLiterature

>  <Document_ChEMBL_ID>  (1315) 
10.4155/fmc-2017-0164

$$$$

     RDKit          2D

 22 25  0  0  0  0  0  0  0  0999 V2000
   -6.0632    2.0054    0.0000 C   0  0  0  0  0  0  0  0  0  0  0  0
   -4.5802    2.2307    0.0000 C   0  0  0  0  0  0  0  0  0  0  0  0
   -3.6436    1.0590    0.0000 C   0  0  0  0  0  0  0  0  0  0  0  0
   -4.1900   -0.3379    0.0000 C   0  0  0  0  0  0  0  0  0  0  0  0
   -3.2534   -1.5096    0.0000 C   0  0  0  0  0  0  0  0  0  0  0  0
   -1.7704   -1.2843    0.0000 N   0  0  0  0  0  0  0  0  0  0  0  0
   -0.8338   -2.4559    0.0000 C   0  0  0  0  0  0  0  0  0  0  0  0
    0.6492   -2.2306    0.0000 C   0  0  0  0  0  0  0  0  0  0  0  0
    1.1956   -0.8337    0.0000 C   0  0  0  0  0  0  0  0  0  0  0  0
    2.1322   -2.0053    0.0000 C   0  0  0  0  0  0  0  0  0  0  0  0
    3.6152   -1.7801    0.0000 C   0  0  0  0  0  0  0  0  0  0  0  0
    4.1616   -0.3831    0.0000 C   0  0  0  0  0  0  0  0  0  0  0  0
    5.6445   -0.1578    0.0000 C   0  0  0  0  0  0  0  0  0  0  0  0
    6.1909    1.2391    0.0000 C   0  0  0  0  0  0  0  0  0  0  0  0
    5.2543    2.4108    0.0000 C   0  0  0  0  0  0  0  0  0  0  0  0
    3.7714    2.1855    0.0000 C   0  0  0  0  0  0  0  0  0  0  0  0
    3.2250    0.7885    0.0000 C   0  0  0  0  0  0  0  0  0  0  0  0
    1.7420    0.5633    0.0000 O   0  0  0  0  0  0  0  0  0  0  0  0
    0.2590    0.3380    0.0000 C   0  0  0  0  0  0  0  0  0  0  0  0
   -1.2240    0.1127    0.0000 C   0  0  0  0  0  0  0  0  0  0  0  0
   -5.6729   -0.5632    0.0000 C   0  0  0  0  0  0  0  0  0  0  0  0
   -6.6095    0.6085    0.0000 C   0  0  0  0  0  0  0  0  0  0  0  0
  1  2  2  0
  2  3  1  0
  3  4  2  0
  4  5  1  0
  5  6  1  0
  6  7  1  0
  7  8  1  0
  8  9  1  0
  9 10  1  0
 10 11  1  0
 11 12  1  0
 12 13  2  0
 13 14  1  0
 14 15  2  0
 15 16  1  0
 16 17  2  0
 17 18  1  0
  9 19  1  0
 19 20  1  0
  4 21  1  0
 21 22  2  0
 22  1  1  0
 20  6  1  0
 18  9  1  0
 17 12  1  0
M  END
>  <ChemBL_ID>  (1316) 
CHEMBL38634

>  <Compound_Key>  (1316) 
5,Spptn-7

>  <Ki>  (1316) 
22.0

>  <database>  (1316) 
CHEMBL

>  <Assay_ChEMBL_ID>  (1316) 
CHEMBL805217

>  <Document_ChEMBL_ID>  (1316) 
CHEMBL1131209

$$$$

     RDKit          2D

 14 16  0  0  0  0  0  0  0  0999 V2000
    3.8169   -0.8123    0.0000 C   0  0  0  0  0  0  0  0  0  0  0  0
    2.5660   -1.6400    0.0000 C   0  0  0  0  0  0  0  0  0  0  0  0
    1.2237   -0.9705    0.0000 C   0  0  0  0  0  0  0  0  0  0  0  0
    1.1324    0.5267    0.0000 C   0  0  0  0  0  0  0  0  0  0  0  0
   -0.2099    1.1962    0.0000 C   0  0  0  0  0  0  0  0  0  0  0  0
   -1.4609    0.3685    0.0000 N   0  0  0  0  0  0  0  0  0  0  0  0
   -1.5266   -1.1300    0.0000 C   0  0  0  0  0  0  0  0  0  0  0  0
   -2.9721   -1.5306    0.0000 C   0  0  0  0  0  0  0  0  0  0  0  0
   -3.7998   -0.2797    0.0000 C   0  0  0  0  0  0  0  0  0  0  0  0
   -2.8658    0.8941    0.0000 C   0  0  0  0  0  0  0  0  0  0  0  0
   -1.4203    1.2947    0.0000 C   0  0  0  0  0  0  0  0  0  0  0  0
   -0.5926    0.0437    0.0000 C   0  0  0  0  0  0  0  0  0  0  0  0
    2.3833    1.3544    0.0000 C   0  0  0  0  0  0  0  0  0  0  0  0
    3.7256    0.6849    0.0000 C   0  0  0  0  0  0  0  0  0  0  0  0
  1  2  1  0
  2  3  1  0
  3  4  1  0
  4  5  1  0
  5  6  1  0
  6  7  1  0
  7  8  1  0
  8  9  1  0
  9 10  1  0
 10 11  1  0
 11 12  1  0
  4 13  1  0
 13 14  1  0
 14  1  1  0
 10  6  1  0
 12  7  1  0
M  END
>  <ChemBL_ID>  (1317) 
CHEMBL2030625

>  <Ki>  (1317) 
18.0

>  <database>  (1317) 
SRSLDB

$$$$

     RDKit          2D

 14 16  0  0  0  0  0  0  0  0999 V2000
    3.8169   -0.8123    0.0000 C   0  0  0  0  0  0  0  0  0  0  0  0
    2.5660   -1.6400    0.0000 C   0  0  0  0  0  0  0  0  0  0  0  0
    1.2237   -0.9705    0.0000 C   0  0  0  0  0  0  0  0  0  0  0  0
    1.1324    0.5267    0.0000 C   0  0  0  0  0  0  0  0  0  0  0  0
   -0.2099    1.1962    0.0000 C   0  0  0  0  0  0  0  0  0  0  0  0
   -1.4609    0.3685    0.0000 N   0  0  0  0  0  0  0  0  0  0  0  0
   -1.5266   -1.1300    0.0000 C   0  0  0  0  0  0  0  0  0  0  0  0
   -2.9721   -1.5306    0.0000 C   0  0  0  0  0  0  0  0  0  0  0  0
   -3.7998   -0.2797    0.0000 C   0  0  0  0  0  0  0  0  0  0  0  0
   -2.8658    0.8941    0.0000 C   0  0  0  0  0  0  0  0  0  0  0  0
   -1.4203    1.2947    0.0000 C   0  0  0  0  0  0  0  0  0  0  0  0
   -0.5926    0.0437    0.0000 C   0  0  0  0  0  0  0  0  0  0  0  0
    2.3833    1.3544    0.0000 C   0  0  0  0  0  0  0  0  0  0  0  0
    3.7256    0.6849    0.0000 C   0  0  0  0  0  0  0  0  0  0  0  0
  1  2  2  0
  2  3  1  0
  3  4  2  0
  4  5  1  0
  5  6  1  0
  6  7  1  0
  7  8  1  0
  8  9  1  0
  9 10  1  0
 10 11  1  0
 11 12  1  0
  4 13  1  0
 13 14  2  0
 14  1  1  0
 10  6  1  0
 12  7  1  0
M  END
>  <ChemBL_ID>  (1318) 
CHEMBL2030622

>  <Ki>  (1318) 
399.0

>  <database>  (1318) 
SRSLDB

$$$$

     RDKit          2D

 21 23  0  0  0  0  0  0  0  0999 V2000
   -7.2334   -1.6918    0.0000 C   0  0  0  0  0  0  0  0  0  0  0  0
   -7.5185   -0.2191    0.0000 C   0  0  0  0  0  0  0  0  0  0  0  0
   -6.3858    0.7642    0.0000 C   0  0  0  0  0  0  0  0  0  0  0  0
   -4.9679    0.2748    0.0000 C   0  0  0  0  0  0  0  0  0  0  0  0
   -3.8351    1.2581    0.0000 C   0  0  0  0  0  0  0  0  0  0  0  0
   -2.4172    0.7688    0.0000 C   0  0  0  0  0  0  0  0  0  0  0  0
   -1.2844    1.7521    0.0000 C   0  0  0  0  0  0  0  0  0  0  0  0
    0.1335    1.2627    0.0000 N   0  0  0  0  0  0  0  0  0  0  0  0
    0.4187   -0.2099    0.0000 C   0  0  0  0  0  0  0  0  0  0  0  0
    1.8366   -0.6993    0.0000 C   0  0  0  0  0  0  0  0  0  0  0  0
    2.9694    0.2840    0.0000 N   0  0  0  0  0  0  0  0  0  0  0  0
    4.3873   -0.2054    0.0000 C   0  0  0  0  0  0  0  0  0  0  0  0
    4.6725   -1.6780    0.0000 C   0  0  0  0  0  0  0  0  0  0  0  0
    6.0904   -2.1673    0.0000 C   0  0  0  0  0  0  0  0  0  0  0  0
    7.2232   -1.1841    0.0000 C   0  0  0  0  0  0  0  0  0  0  0  0
    6.9380    0.2886    0.0000 C   0  0  0  0  0  0  0  0  0  0  0  0
    5.5201    0.7779    0.0000 C   0  0  0  0  0  0  0  0  0  0  0  0
    2.6842    1.7566    0.0000 C   0  0  0  0  0  0  0  0  0  0  0  0
    1.2663    2.2460    0.0000 C   0  0  0  0  0  0  0  0  0  0  0  0
   -4.6827   -1.1978    0.0000 C   0  0  0  0  0  0  0  0  0  0  0  0
   -5.8154   -2.1811    0.0000 C   0  0  0  0  0  0  0  0  0  0  0  0
  1  2  1  0
  2  3  1  0
  3  4  1  0
  4  5  1  0
  5  6  1  0
  6  7  1  0
  7  8  1  0
  8  9  1  0
  9 10  1  0
 10 11  1  0
 11 12  1  0
 12 13  1  0
 13 14  1  0
 14 15  1  0
 15 16  1  0
 16 17  1  0
 11 18  1  0
 18 19  1  0
  4 20  1  0
 20 21  1  0
 21  1  1  0
 19  8  1  0
 17 12  1  0
M  END
>  <Compound_Key>  (1319) 
33

>  <Ki>  (1319) 
4.7

>  <database>  (1319) 
NewLiterature

>  <Document_ChEMBL_ID>  (1319) 
10.1038/s41598-023-39698-w

$$$$

     RDKit          2D

 22 23  0  0  0  0  0  0  0  0999 V2000
   -3.2529    3.3532    0.0000 C   0  0  0  0  0  0  0  0  0  0  0  0
   -2.5621    2.0217    0.0000 N   0  0  0  0  0  0  0  0  0  0  0  0
   -1.0636    1.9543    0.0000 C   0  0  0  0  0  0  0  0  0  0  0  0
   -0.3728    0.6228    0.0000 C   0  0  0  0  0  0  0  0  0  0  0  0
    1.1257    0.5554    0.0000 C   0  0  0  0  0  0  0  0  0  0  0  0
    1.8165   -0.7761    0.0000 C   0  0  0  0  0  0  0  0  0  0  0  0
    3.3150   -0.8436    0.0000 C   0  0  0  0  0  0  0  0  0  0  0  0
    4.1226    0.4204    0.0000 C   0  0  0  0  0  0  0  0  0  0  0  0
    5.6211    0.3530    0.0000 O   0  0  0  0  0  0  0  0  0  0  0  0
    6.3119   -0.9785    0.0000 C   0  0  0  0  0  0  0  0  0  0  0  0
    7.0027   -2.3099    0.0000 F   0  0  0  0  0  0  0  0  0  0  0  0
    7.6434   -0.2877    0.0000 F   0  0  0  0  0  0  0  0  0  0  0  0
    4.9805   -1.6693    0.0000 F   0  0  0  0  0  0  0  0  0  0  0  0
    3.4318    1.7519    0.0000 C   0  0  0  0  0  0  0  0  0  0  0  0
    1.9333    1.8194    0.0000 C   0  0  0  0  0  0  0  0  0  0  0  0
   -3.3698    0.7577    0.0000 C   0  0  0  0  0  0  0  0  0  0  0  0
   -4.8683    0.8252    0.0000 C   0  0  0  0  0  0  0  0  0  0  0  0
   -5.6759   -0.4388    0.0000 N   0  0  0  0  0  0  0  0  0  0  0  0
   -5.1281   -1.8352    0.0000 C   0  0  0  0  0  0  0  0  0  0  0  0
   -6.2868   -2.7877    0.0000 C   0  0  0  0  0  0  0  0  0  0  0  0
   -7.5508   -1.9800    0.0000 C   0  0  0  0  0  0  0  0  0  0  0  0
   -7.1733   -0.5283    0.0000 C   0  0  0  0  0  0  0  0  0  0  0  0
  1  2  1  0
  2  3  1  0
  3  4  1  0
  4  5  1  0
  5  6  2  0
  6  7  1  0
  7  8  2  0
  8  9  1  0
  9 10  1  0
 10 11  1  0
 10 12  1  0
 10 13  1  0
  8 14  1  0
 14 15  2  0
  2 16  1  0
 16 17  1  0
 17 18  1  0
 18 19  1  0
 19 20  1  0
 20 21  1  0
 21 22  1  0
 15  5  1  0
 22 18  1  0
M  END
>  <Compound_Key>  (1320) 
20g

>  <Ki>  (1320) 
36.0

>  <database>  (1320) 
NewLiterature

>  <Document_ChEMBL_ID>  (1320) 
10.4155/fmc-2017-0164

$$$$

     RDKit          2D

 21 22  0  0  0  0  0  0  0  0999 V2000
   -2.3732    3.5457    0.0000 C   0  0  0  0  0  0  0  0  0  0  0  0
   -0.9355    3.1180    0.0000 C   0  0  0  0  0  0  0  0  0  0  0  0
   -0.5870    1.6590    0.0000 N   0  0  0  0  0  0  0  0  0  0  0  0
    0.8507    1.2313    0.0000 C   0  0  0  0  0  0  0  0  0  0  0  0
    1.1992   -0.2277    0.0000 C   0  0  0  0  0  0  0  0  0  0  0  0
    2.6369   -0.6554    0.0000 C   0  0  0  0  0  0  0  0  0  0  0  0
    2.9854   -2.1143    0.0000 C   0  0  0  0  0  0  0  0  0  0  0  0
    4.4231   -2.5420    0.0000 C   0  0  0  0  0  0  0  0  0  0  0  0
    5.5123   -1.5108    0.0000 C   0  0  0  0  0  0  0  0  0  0  0  0
    5.1639   -0.0518    0.0000 C   0  0  0  0  0  0  0  0  0  0  0  0
    6.2531    0.9795    0.0000 O   0  0  0  0  0  0  0  0  0  0  0  0
    7.6909    0.5518    0.0000 C   0  0  0  0  0  0  0  0  0  0  0  0
    3.7262    0.3759    0.0000 C   0  0  0  0  0  0  0  0  0  0  0  0
   -1.6763    0.6278    0.0000 C   0  0  0  0  0  0  0  0  0  0  0  0
   -3.1140    1.0555    0.0000 C   0  0  0  0  0  0  0  0  0  0  0  0
   -4.2033    0.0242    0.0000 N   0  0  0  0  0  0  0  0  0  0  0  0
   -5.6410    0.4519    0.0000 C   0  0  0  0  0  0  0  0  0  0  0  0
   -6.7303   -0.5794    0.0000 C   0  0  0  0  0  0  0  0  0  0  0  0
   -6.3818   -2.0383    0.0000 C   0  0  0  0  0  0  0  0  0  0  0  0
   -4.9441   -2.4660    0.0000 C   0  0  0  0  0  0  0  0  0  0  0  0
   -3.8548   -1.4348    0.0000 C   0  0  0  0  0  0  0  0  0  0  0  0
  1  2  1  0
  2  3  1  0
  3  4  1  0
  4  5  1  0
  5  6  1  0
  6  7  2  0
  7  8  1  0
  8  9  2  0
  9 10  1  0
 10 11  1  0
 11 12  1  0
 10 13  2  0
  3 14  1  0
 14 15  1  0
 15 16  1  0
 16 17  1  0
 17 18  1  0
 18 19  1  0
 19 20  1  0
 20 21  1  0
 13  6  1  0
 21 16  1  0
M  END
>  <Compound_Key>  (1321) 
21a, UMB98

>  <Ki>  (1321) 
711.0

>  <database>  (1321) 
NewLiterature

>  <Document_ChEMBL_ID>  (1321) 
10.4155/fmc-2017-0164

$$$$

     RDKit          2D

 21 22  0  0  0  0  0  0  0  0999 V2000
   -3.2448   -3.7616    0.0000 C   0  0  0  0  0  0  0  0  0  0  0  0
   -2.7040   -2.3625    0.0000 C   0  0  0  0  0  0  0  0  0  0  0  0
   -3.6452   -1.1946    0.0000 C   0  0  0  0  0  0  0  0  0  0  0  0
   -5.1273   -1.4257    0.0000 C   0  0  0  0  0  0  0  0  0  0  0  0
   -6.0685   -0.2578    0.0000 C   0  0  0  0  0  0  0  0  0  0  0  0
   -5.5276    1.1413    0.0000 C   0  0  0  0  0  0  0  0  0  0  0  0
   -4.0455    1.3725    0.0000 C   0  0  0  0  0  0  0  0  0  0  0  0
   -3.1043    0.2045    0.0000 C   0  0  0  0  0  0  0  0  0  0  0  0
   -1.6222    0.4357    0.0000 C   0  0  0  0  0  0  0  0  0  0  0  0
   -1.0814    1.8348    0.0000 C   0  0  0  0  0  0  0  0  0  0  0  0
    0.4007    2.0659    0.0000 N   0  0  0  0  0  0  0  0  0  0  0  0
    0.9416    3.4650    0.0000 C   0  0  0  0  0  0  0  0  0  0  0  0
    2.4237    3.6962    0.0000 C   0  0  0  0  0  0  0  0  0  0  0  0
    1.3419    0.8980    0.0000 C   0  0  0  0  0  0  0  0  0  0  0  0
    2.8240    1.1291    0.0000 C   0  0  0  0  0  0  0  0  0  0  0  0
    3.7652   -0.0388    0.0000 N   0  0  0  0  0  0  0  0  0  0  0  0
    3.2244   -1.4379    0.0000 C   0  0  0  0  0  0  0  0  0  0  0  0
    4.1656   -2.6059    0.0000 C   0  0  0  0  0  0  0  0  0  0  0  0
    5.6477   -2.3747    0.0000 C   0  0  0  0  0  0  0  0  0  0  0  0
    6.1885   -0.9756    0.0000 C   0  0  0  0  0  0  0  0  0  0  0  0
    5.2473    0.1923    0.0000 C   0  0  0  0  0  0  0  0  0  0  0  0
  1  2  1  0
  2  3  1  0
  3  4  2  0
  4  5  1  0
  5  6  2  0
  6  7  1  0
  7  8  2  0
  8  9  1  0
  9 10  1  0
 10 11  1  0
 11 12  1  0
 12 13  1  0
 11 14  1  0
 14 15  1  0
 15 16  1  0
 16 17  1  0
 17 18  1  0
 18 19  1  0
 19 20  1  0
 20 21  1  0
  8  3  1  0
 21 16  1  0
M  END
>  <Compound_Key>  (1322) 
21b, UMB99

>  <Ki>  (1322) 
1015.0

>  <database>  (1322) 
NewLiterature

>  <Document_ChEMBL_ID>  (1322) 
10.4155/fmc-2017-0164

$$$$

     RDKit          2D

 21 22  0  0  0  0  0  0  0  0999 V2000
   -2.9063    3.5003    0.0000 C   0  0  0  0  0  0  0  0  0  0  0  0
   -1.4229    3.2781    0.0000 C   0  0  0  0  0  0  0  0  0  0  0  0
   -0.8736    1.8823    0.0000 N   0  0  0  0  0  0  0  0  0  0  0  0
    0.6098    1.6600    0.0000 C   0  0  0  0  0  0  0  0  0  0  0  0
    1.1591    0.2642    0.0000 C   0  0  0  0  0  0  0  0  0  0  0  0
    2.6425    0.0420    0.0000 C   0  0  0  0  0  0  0  0  0  0  0  0
    3.1918   -1.3539    0.0000 C   0  0  0  0  0  0  0  0  0  0  0  0
    4.6752   -1.5761    0.0000 C   0  0  0  0  0  0  0  0  0  0  0  0
    5.6094   -0.4025    0.0000 C   0  0  0  0  0  0  0  0  0  0  0  0
    7.0929   -0.6248    0.0000 O   0  0  0  0  0  0  0  0  0  0  0  0
    7.6421   -2.0206    0.0000 C   0  0  0  0  0  0  0  0  0  0  0  0
    5.0602    0.9933    0.0000 C   0  0  0  0  0  0  0  0  0  0  0  0
    3.5767    1.2155    0.0000 C   0  0  0  0  0  0  0  0  0  0  0  0
   -1.8078    0.7087    0.0000 C   0  0  0  0  0  0  0  0  0  0  0  0
   -3.2913    0.9309    0.0000 C   0  0  0  0  0  0  0  0  0  0  0  0
   -4.2254   -0.2427    0.0000 N   0  0  0  0  0  0  0  0  0  0  0  0
   -5.7089   -0.0204    0.0000 C   0  0  0  0  0  0  0  0  0  0  0  0
   -6.6431   -1.1940    0.0000 C   0  0  0  0  0  0  0  0  0  0  0  0
   -6.0938   -2.5898    0.0000 C   0  0  0  0  0  0  0  0  0  0  0  0
   -4.6104   -2.8121    0.0000 C   0  0  0  0  0  0  0  0  0  0  0  0
   -3.6762   -1.6385    0.0000 C   0  0  0  0  0  0  0  0  0  0  0  0
  1  2  1  0
  2  3  1  0
  3  4  1  0
  4  5  1  0
  5  6  1  0
  6  7  2  0
  7  8  1  0
  8  9  2  0
  9 10  1  0
 10 11  1  0
  9 12  1  0
 12 13  2  0
  3 14  1  0
 14 15  1  0
 15 16  1  0
 16 17  1  0
 17 18  1  0
 18 19  1  0
 19 20  1  0
 20 21  1  0
 13  6  1  0
 21 16  1  0
M  END
>  <Compound_Key>  (1323) 
21c, UMB100

>  <Ki>  (1323) 
955.0

>  <database>  (1323) 
NewLiterature

>  <Document_ChEMBL_ID>  (1323) 
10.4155/fmc-2017-0164

$$$$

     RDKit          2D

 20 21  0  0  0  0  0  0  0  0999 V2000
   -7.5881   -0.5391    0.0000 C   0  0  0  0  0  0  0  0  0  0  0  0
   -6.1615   -1.0027    0.0000 C   0  0  0  0  0  0  0  0  0  0  0  0
   -5.0468    0.0010    0.0000 C   0  0  0  0  0  0  0  0  0  0  0  0
   -5.3586    1.4682    0.0000 C   0  0  0  0  0  0  0  0  0  0  0  0
   -4.2438    2.4719    0.0000 C   0  0  0  0  0  0  0  0  0  0  0  0
   -2.8172    2.0083    0.0000 C   0  0  0  0  0  0  0  0  0  0  0  0
   -2.5055    0.5410    0.0000 C   0  0  0  0  0  0  0  0  0  0  0  0
   -1.0789    0.0774    0.0000 C   0  0  0  0  0  0  0  0  0  0  0  0
   -0.7671   -1.3898    0.0000 C   0  0  0  0  0  0  0  0  0  0  0  0
    0.6595   -1.8534    0.0000 N   0  0  0  0  0  0  0  0  0  0  0  0
    0.9713   -3.3206    0.0000 C   0  0  0  0  0  0  0  0  0  0  0  0
    1.7742   -0.8498    0.0000 C   0  0  0  0  0  0  0  0  0  0  0  0
    3.2008   -1.3134    0.0000 C   0  0  0  0  0  0  0  0  0  0  0  0
    4.3156   -0.3097    0.0000 N   0  0  0  0  0  0  0  0  0  0  0  0
    5.7421   -0.7733    0.0000 C   0  0  0  0  0  0  0  0  0  0  0  0
    6.8569    0.2303    0.0000 C   0  0  0  0  0  0  0  0  0  0  0  0
    6.5451    1.6976    0.0000 C   0  0  0  0  0  0  0  0  0  0  0  0
    5.1185    2.1612    0.0000 C   0  0  0  0  0  0  0  0  0  0  0  0
    4.0038    1.1575    0.0000 C   0  0  0  0  0  0  0  0  0  0  0  0
   -3.6202   -0.4626    0.0000 C   0  0  0  0  0  0  0  0  0  0  0  0
  1  2  1  0
  2  3  1  0
  3  4  2  0
  4  5  1  0
  5  6  2  0
  6  7  1  0
  7  8  1  0
  8  9  1  0
  9 10  1  0
 10 11  1  0
 10 12  1  0
 12 13  1  0
 13 14  1  0
 14 15  1  0
 15 16  1  0
 16 17  1  0
 17 18  1  0
 18 19  1  0
  7 20  2  0
 20  3  1  0
 19 14  1  0
M  END
>  <Compound_Key>  (1324) 
21d, UMB101

>  <Ki>  (1324) 
387.0

>  <database>  (1324) 
NewLiterature

>  <Document_ChEMBL_ID>  (1324) 
10.4155/fmc-2017-0164

$$$$

     RDKit          2D

 21 22  0  0  0  0  0  0  0  0999 V2000
   -1.9600    3.4671    0.0000 C   0  0  0  0  0  0  0  0  0  0  0  0
   -0.5385    2.9882    0.0000 C   0  0  0  0  0  0  0  0  0  0  0  0
   -0.2424    1.5177    0.0000 N   0  0  0  0  0  0  0  0  0  0  0  0
    1.1791    1.0388    0.0000 C   0  0  0  0  0  0  0  0  0  0  0  0
    1.4751   -0.4317    0.0000 C   0  0  0  0  0  0  0  0  0  0  0  0
    2.8966   -0.9105    0.0000 C   0  0  0  0  0  0  0  0  0  0  0  0
    3.1926   -2.3810    0.0000 C   0  0  0  0  0  0  0  0  0  0  0  0
    4.6141   -2.8599    0.0000 C   0  0  0  0  0  0  0  0  0  0  0  0
    5.7396   -1.8683    0.0000 C   0  0  0  0  0  0  0  0  0  0  0  0
    5.4436   -0.3978    0.0000 C   0  0  0  0  0  0  0  0  0  0  0  0
    4.0221    0.0811    0.0000 C   0  0  0  0  0  0  0  0  0  0  0  0
    3.7260    1.5516    0.0000 O   0  0  0  0  0  0  0  0  0  0  0  0
    4.8515    2.5432    0.0000 C   0  0  0  0  0  0  0  0  0  0  0  0
   -1.3679    0.5261    0.0000 C   0  0  0  0  0  0  0  0  0  0  0  0
   -2.7894    1.0050    0.0000 C   0  0  0  0  0  0  0  0  0  0  0  0
   -3.9149    0.0133    0.0000 N   0  0  0  0  0  0  0  0  0  0  0  0
   -5.3364    0.4922    0.0000 C   0  0  0  0  0  0  0  0  0  0  0  0
   -6.4619   -0.4994    0.0000 C   0  0  0  0  0  0  0  0  0  0  0  0
   -6.1658   -1.9699    0.0000 C   0  0  0  0  0  0  0  0  0  0  0  0
   -4.7443   -2.4488    0.0000 C   0  0  0  0  0  0  0  0  0  0  0  0
   -3.6189   -1.4572    0.0000 C   0  0  0  0  0  0  0  0  0  0  0  0
  1  2  1  0
  2  3  1  0
  3  4  1  0
  4  5  1  0
  5  6  1  0
  6  7  2  0
  7  8  1  0
  8  9  2  0
  9 10  1  0
 10 11  2  0
 11 12  1  0
 12 13  1  0
  3 14  1  0
 14 15  1  0
 15 16  1  0
 16 17  1  0
 17 18  1  0
 18 19  1  0
 19 20  1  0
 20 21  1  0
 11  6  1  0
 21 16  1  0
M  END
>  <Compound_Key>  (1325) 
21e, UMB102

>  <Ki>  (1325) 
379.0

>  <database>  (1325) 
NewLiterature

>  <Document_ChEMBL_ID>  (1325) 
10.4155/fmc-2017-0164

$$$$

     RDKit          2D

 20 21  0  0  0  0  0  0  0  0999 V2000
    7.4378   -2.0705    0.0000 C   0  0  0  0  0  0  0  0  0  0  0  0
    6.9308   -0.6588    0.0000 O   0  0  0  0  0  0  0  0  0  0  0  0
    5.4548   -0.3920    0.0000 C   0  0  0  0  0  0  0  0  0  0  0  0
    4.4857   -1.5369    0.0000 C   0  0  0  0  0  0  0  0  0  0  0  0
    3.0096   -1.2701    0.0000 C   0  0  0  0  0  0  0  0  0  0  0  0
    2.5026    0.1417    0.0000 C   0  0  0  0  0  0  0  0  0  0  0  0
    1.0265    0.4085    0.0000 C   0  0  0  0  0  0  0  0  0  0  0  0
    0.5196    1.8202    0.0000 C   0  0  0  0  0  0  0  0  0  0  0  0
   -0.9565    2.0870    0.0000 N   0  0  0  0  0  0  0  0  0  0  0  0
   -1.4635    3.4988    0.0000 C   0  0  0  0  0  0  0  0  0  0  0  0
   -1.9256    0.9421    0.0000 C   0  0  0  0  0  0  0  0  0  0  0  0
   -3.4017    1.2089    0.0000 C   0  0  0  0  0  0  0  0  0  0  0  0
   -4.3708    0.0640    0.0000 N   0  0  0  0  0  0  0  0  0  0  0  0
   -5.8469    0.3308    0.0000 C   0  0  0  0  0  0  0  0  0  0  0  0
   -6.8160   -0.8141    0.0000 C   0  0  0  0  0  0  0  0  0  0  0  0
   -6.3090   -2.2258    0.0000 C   0  0  0  0  0  0  0  0  0  0  0  0
   -4.8330   -2.4926    0.0000 C   0  0  0  0  0  0  0  0  0  0  0  0
   -3.8638   -1.3477    0.0000 C   0  0  0  0  0  0  0  0  0  0  0  0
    3.4717    1.2866    0.0000 C   0  0  0  0  0  0  0  0  0  0  0  0
    4.9478    1.0198    0.0000 C   0  0  0  0  0  0  0  0  0  0  0  0
  1  2  1  0
  2  3  1  0
  3  4  2  0
  4  5  1  0
  5  6  2  0
  6  7  1  0
  7  8  1  0
  8  9  1  0
  9 10  1  0
  9 11  1  0
 11 12  1  0
 12 13  1  0
 13 14  1  0
 14 15  1  0
 15 16  1  0
 16 17  1  0
 17 18  1  0
  6 19  1  0
 19 20  2  0
 20  3  1  0
 18 13  1  0
M  END
>  <Compound_Key>  (1326) 
21f, UMB103

>  <Ki>  (1326) 
421.0

>  <database>  (1326) 
NewLiterature

>  <Document_ChEMBL_ID>  (1326) 
10.4155/fmc-2017-0164

$$$$

     RDKit          2D

 23 24  0  0  0  0  0  0  0  0999 V2000
   -2.8236    3.5677    0.0000 C   0  0  0  0  0  0  0  0  0  0  0  0
   -2.1790    2.2132    0.0000 N   0  0  0  0  0  0  0  0  0  0  0  0
   -0.6838    2.0942    0.0000 C   0  0  0  0  0  0  0  0  0  0  0  0
   -0.0392    0.7397    0.0000 C   0  0  0  0  0  0  0  0  0  0  0  0
    1.4560    0.6206    0.0000 C   0  0  0  0  0  0  0  0  0  0  0  0
    2.1006   -0.7338    0.0000 C   0  0  0  0  0  0  0  0  0  0  0  0
    3.5958   -0.8529    0.0000 C   0  0  0  0  0  0  0  0  0  0  0  0
    4.4466    0.3825    0.0000 C   0  0  0  0  0  0  0  0  0  0  0  0
    5.9418    0.2635    0.0000 O   0  0  0  0  0  0  0  0  0  0  0  0
    6.5864   -1.0910    0.0000 C   0  0  0  0  0  0  0  0  0  0  0  0
    7.2309   -2.4455    0.0000 F   0  0  0  0  0  0  0  0  0  0  0  0
    7.9408   -0.4465    0.0000 F   0  0  0  0  0  0  0  0  0  0  0  0
    5.2319   -1.7355    0.0000 F   0  0  0  0  0  0  0  0  0  0  0  0
    3.8020    1.7370    0.0000 C   0  0  0  0  0  0  0  0  0  0  0  0
    2.3068    1.8560    0.0000 C   0  0  0  0  0  0  0  0  0  0  0  0
   -3.0298    0.9778    0.0000 C   0  0  0  0  0  0  0  0  0  0  0  0
   -4.5250    1.0969    0.0000 C   0  0  0  0  0  0  0  0  0  0  0  0
   -5.3758   -0.1386    0.0000 N   0  0  0  0  0  0  0  0  0  0  0  0
   -6.8711   -0.0195    0.0000 C   0  0  0  0  0  0  0  0  0  0  0  0
   -7.7218   -1.2549    0.0000 C   0  0  0  0  0  0  0  0  0  0  0  0
   -7.0773   -2.6094    0.0000 C   0  0  0  0  0  0  0  0  0  0  0  0
   -5.5820   -2.7284    0.0000 C   0  0  0  0  0  0  0  0  0  0  0  0
   -4.7313   -1.4930    0.0000 C   0  0  0  0  0  0  0  0  0  0  0  0
  1  2  1  0
  2  3  1  0
  3  4  1  0
  4  5  1  0
  5  6  2  0
  6  7  1  0
  7  8  2  0
  8  9  1  0
  9 10  1  0
 10 11  1  0
 10 12  1  0
 10 13  1  0
  8 14  1  0
 14 15  2  0
  2 16  1  0
 16 17  1  0
 17 18  1  0
 18 19  1  0
 19 20  1  0
 20 21  1  0
 21 22  1  0
 22 23  1  0
 15  5  1  0
 23 18  1  0
M  END
>  <Compound_Key>  (1327) 
21g

>  <Ki>  (1327) 
25.0

>  <database>  (1327) 
NewLiterature

>  <Document_ChEMBL_ID>  (1327) 
10.4155/fmc-2017-0164

$$$$

     RDKit          2D

 24 25  0  0  0  0  0  0  0  0999 V2000
   -4.2434    3.4069    0.0000 C   0  0  0  0  0  0  0  0  0  0  0  0
   -2.7452    3.3329    0.0000 C   0  0  0  0  0  0  0  0  0  0  0  0
   -2.0602    1.9985    0.0000 N   0  0  0  0  0  0  0  0  0  0  0  0
   -0.5620    1.9245    0.0000 C   0  0  0  0  0  0  0  0  0  0  0  0
    0.1230    0.5900    0.0000 C   0  0  0  0  0  0  0  0  0  0  0  0
    1.6212    0.5161    0.0000 C   0  0  0  0  0  0  0  0  0  0  0  0
    2.3062   -0.8184    0.0000 C   0  0  0  0  0  0  0  0  0  0  0  0
    3.8044   -0.8923    0.0000 C   0  0  0  0  0  0  0  0  0  0  0  0
    4.6175    0.3681    0.0000 C   0  0  0  0  0  0  0  0  0  0  0  0
    6.1157    0.2942    0.0000 O   0  0  0  0  0  0  0  0  0  0  0  0
    6.8007   -1.0403    0.0000 C   0  0  0  0  0  0  0  0  0  0  0  0
    7.4858   -2.3747    0.0000 F   0  0  0  0  0  0  0  0  0  0  0  0
    8.1352   -0.3553    0.0000 F   0  0  0  0  0  0  0  0  0  0  0  0
    5.4663   -1.7253    0.0000 F   0  0  0  0  0  0  0  0  0  0  0  0
    3.9325    1.7026    0.0000 C   0  0  0  0  0  0  0  0  0  0  0  0
    2.4343    1.7765    0.0000 C   0  0  0  0  0  0  0  0  0  0  0  0
   -2.8734    0.7380    0.0000 C   0  0  0  0  0  0  0  0  0  0  0  0
   -4.3715    0.8120    0.0000 C   0  0  0  0  0  0  0  0  0  0  0  0
   -5.1847   -0.4485    0.0000 N   0  0  0  0  0  0  0  0  0  0  0  0
   -6.6829   -0.3745    0.0000 C   0  0  0  0  0  0  0  0  0  0  0  0
   -7.4960   -1.6350    0.0000 C   0  0  0  0  0  0  0  0  0  0  0  0
   -6.8110   -2.9695    0.0000 C   0  0  0  0  0  0  0  0  0  0  0  0
   -5.3128   -3.0434    0.0000 C   0  0  0  0  0  0  0  0  0  0  0  0
   -4.4996   -1.7830    0.0000 C   0  0  0  0  0  0  0  0  0  0  0  0
  1  2  1  0
  2  3  1  0
  3  4  1  0
  4  5  1  0
  5  6  1  0
  6  7  2  0
  7  8  1  0
  8  9  2  0
  9 10  1  0
 10 11  1  0
 11 12  1  0
 11 13  1  0
 11 14  1  0
  9 15  1  0
 15 16  2  0
  3 17  1  0
 17 18  1  0
 18 19  1  0
 19 20  1  0
 20 21  1  0
 21 22  1  0
 22 23  1  0
 23 24  1  0
 16  6  1  0
 24 19  1  0
M  END
>  <Compound_Key>  (1328) 
21h

>  <Ki>  (1328) 
15.0

>  <database>  (1328) 
NewLiterature

>  <Document_ChEMBL_ID>  (1328) 
10.4155/fmc-2017-0164

$$$$

     RDKit          2D

 28 31  0  0  0  0  0  0  0  0999 V2000
    0.3108    5.3882    0.0000 C   0  0  0  0  0  0  0  0  0  0  0  0
   -0.1074    3.9477    0.0000 C   0  0  0  0  0  0  0  0  0  0  0  0
   -1.5641    3.5896    0.0000 C   0  0  0  0  0  0  0  0  0  0  0  0
   -1.9823    2.1491    0.0000 C   0  0  0  0  0  0  0  0  0  0  0  0
   -3.4390    1.7911    0.0000 C   0  0  0  0  0  0  0  0  0  0  0  0
   -3.8572    0.3505    0.0000 N   0  0  0  0  0  0  0  0  0  0  0  0
   -5.2684   -0.1578    0.0000 C   0  0  0  0  0  0  0  0  0  0  0  0
   -6.5092    0.6851    0.0000 S   0  0  0  0  0  0  0  0  0  0  0  0
   -5.2211   -1.6571    0.0000 S   0  0  0  0  0  0  0  0  0  0  0  0
   -3.7805   -2.0753    0.0000 C   0  0  0  0  0  0  0  0  0  0  0  0
   -3.1275   -3.4257    0.0000 C   0  0  0  0  0  0  0  0  0  0  0  0
   -1.6315   -3.5353    0.0000 C   0  0  0  0  0  0  0  0  0  0  0  0
   -0.9784   -4.8856    0.0000 F   0  0  0  0  0  0  0  0  0  0  0  0
   -0.7886   -2.2945    0.0000 C   0  0  0  0  0  0  0  0  0  0  0  0
   -1.4416   -0.9441    0.0000 C   0  0  0  0  0  0  0  0  0  0  0  0
   -2.9376   -0.8345    0.0000 C   0  0  0  0  0  0  0  0  0  0  0  0
    0.9310    2.8652    0.0000 N   0  0  0  0  0  0  0  0  0  0  0  0
    0.5127    1.4247    0.0000 C   0  0  0  0  0  0  0  0  0  0  0  0
    1.5511    0.3422    0.0000 C   0  0  0  0  0  0  0  0  0  0  0  0
    3.0078    0.7003    0.0000 N   0  0  0  0  0  0  0  0  0  0  0  0
    4.0462   -0.3822    0.0000 C   0  0  0  0  0  0  0  0  0  0  0  0
    3.6279   -1.8227    0.0000 C   0  0  0  0  0  0  0  0  0  0  0  0
    4.6663   -2.9052    0.0000 C   0  0  0  0  0  0  0  0  0  0  0  0
    6.1230   -2.5471    0.0000 C   0  0  0  0  0  0  0  0  0  0  0  0
    6.5412   -1.1066    0.0000 C   0  0  0  0  0  0  0  0  0  0  0  0
    5.5028   -0.0241    0.0000 C   0  0  0  0  0  0  0  0  0  0  0  0
    3.4260    2.1408    0.0000 C   0  0  0  0  0  0  0  0  0  0  0  0
    2.3876    3.2233    0.0000 C   0  0  0  0  0  0  0  0  0  0  0  0
  1  2  1  0
  2  3  1  0
  3  4  1  0
  4  5  1  0
  5  6  1  0
  6  7  1  0
  7  8  2  0
  7  9  1  0
  9 10  1  0
 10 11  2  0
 11 12  1  0
 12 13  1  0
 12 14  2  0
 14 15  1  0
 15 16  2  0
  2 17  1  0
 17 18  1  0
 18 19  1  0
 19 20  1  0
 20 21  1  0
 21 22  1  0
 22 23  1  0
 23 24  1  0
 24 25  1  0
 25 26  1  0
 20 27  1  0
 27 28  1  0
 16  6  1  0
 28 17  1  0
 16 10  1  0
 26 21  1  0
M  END
>  <Compound_Key>  (1329) 
AZ66,23

>  <Ki>  (1329) 
0.6

>  <database>  (1329) 
NewLiterature

>  <Document_ChEMBL_ID>  (1329) 
10.4155/fmc-2017-0164

$$$$

     RDKit          2D

 24 26  0  0  0  0  0  0  0  0999 V2000
   -8.8574   -1.8587    0.0000 C   0  0  0  0  0  0  0  0  0  0  0  0
   -7.4024   -2.2231    0.0000 O   0  0  0  0  0  0  0  0  0  0  0  0
   -6.3592   -1.1452    0.0000 C   0  0  0  0  0  0  0  0  0  0  0  0
   -4.9042   -1.5096    0.0000 C   0  0  0  0  0  0  0  0  0  0  0  0
   -3.8611   -0.4317    0.0000 N   0  0  0  0  0  0  0  0  0  0  0  0
   -4.2730    1.0106    0.0000 C   0  0  0  0  0  0  0  0  0  0  0  0
   -3.2299    2.0885    0.0000 C   0  0  0  0  0  0  0  0  0  0  0  0
   -1.7748    1.7241    0.0000 N   0  0  0  0  0  0  0  0  0  0  0  0
   -0.7317    2.8020    0.0000 C   0  0  0  0  0  0  0  0  0  0  0  0
    0.7234    2.4376    0.0000 C   0  0  0  0  0  0  0  0  0  0  0  0
    1.8734    3.4006    0.0000 C   0  0  0  0  0  0  0  0  0  0  0  0
    3.1447    2.6044    0.0000 C   0  0  0  0  0  0  0  0  0  0  0  0
    2.7803    1.1493    0.0000 N   0  0  0  0  0  0  0  0  0  0  0  0
    3.7432   -0.0007    0.0000 C   0  0  0  0  0  0  0  0  0  0  0  0
    3.2287   -1.4097    0.0000 C   0  0  0  0  0  0  0  0  0  0  0  0
    4.1917   -2.5598    0.0000 C   0  0  0  0  0  0  0  0  0  0  0  0
    5.6692   -2.3009    0.0000 C   0  0  0  0  0  0  0  0  0  0  0  0
    6.6322   -3.4510    0.0000 Cl  0  0  0  0  0  0  0  0  0  0  0  0
    6.1837   -0.8919    0.0000 C   0  0  0  0  0  0  0  0  0  0  0  0
    5.2207    0.2582    0.0000 C   0  0  0  0  0  0  0  0  0  0  0  0
    1.2838    1.0463    0.0000 C   0  0  0  0  0  0  0  0  0  0  0  0
    0.4876   -0.2250    0.0000 O   0  0  0  0  0  0  0  0  0  0  0  0
   -1.3629    0.2818    0.0000 C   0  0  0  0  0  0  0  0  0  0  0  0
   -2.4060   -0.7961    0.0000 C   0  0  0  0  0  0  0  0  0  0  0  0
  1  2  1  0
  2  3  1  0
  3  4  1  0
  4  5  1  0
  5  6  1  0
  6  7  1  0
  7  8  1  0
  8  9  1  0
 10  9  1  1
 10 11  1  0
 11 12  1  0
 12 13  1  0
 13 14  1  0
 14 15  2  0
 15 16  1  0
 16 17  2  0
 17 18  1  0
 17 19  1  0
 19 20  2  0
 13 21  1  0
 21 22  2  0
  8 23  1  0
 23 24  1  0
 24  5  1  0
 21 10  1  0
 20 14  1  0
M  END
>  <Compound_Key>  (1330) 
MS-377,24

>  <Ki>  (1330) 
6900.0

>  <database>  (1330) 
NewLiterature

>  <Document_ChEMBL_ID>  (1330) 
10.4155/fmc-2017-0164

$$$$

     RDKit          2D

 29 32  0  0  0  0  0  0  0  0999 V2000
   -3.8597    1.2970    0.0000 C   0  0  0  0  0  0  0  0  0  0  0  0
   -3.4498   -0.1459    0.0000 C   0  0  0  0  0  0  0  0  0  0  0  0
   -1.9952   -0.5123    0.0000 C   0  0  0  0  0  0  0  0  0  0  0  0
   -1.5852   -1.9552    0.0000 N   0  0  0  0  0  0  0  0  0  0  0  0
   -0.1307   -2.3216    0.0000 C   0  0  0  0  0  0  0  0  0  0  0  0
    0.9139   -1.2452    0.0000 C   0  0  0  0  0  0  0  0  0  0  0  0
    2.3685   -1.6116    0.0000 C   0  0  0  0  0  0  0  0  0  0  0  0
    3.4131   -0.5351    0.0000 N   0  0  0  0  0  0  0  0  0  0  0  0
    4.8980   -0.7475    0.0000 C   0  0  0  0  0  0  0  0  0  0  0  0
    5.7337   -1.9931    0.0000 C   0  0  0  0  0  0  0  0  0  0  0  0
    7.2303   -1.8921    0.0000 C   0  0  0  0  0  0  0  0  0  0  0  0
    7.8912   -0.5455    0.0000 C   0  0  0  0  0  0  0  0  0  0  0  0
    7.0554    0.7001    0.0000 C   0  0  0  0  0  0  0  0  0  0  0  0
    5.5588    0.5991    0.0000 C   0  0  0  0  0  0  0  0  0  0  0  0
    4.4823    1.6437    0.0000 C   0  0  0  0  0  0  0  0  0  0  0  0
    4.5383    3.1427    0.0000 C   0  0  0  0  0  0  0  0  0  0  0  0
    3.2682    3.9406    0.0000 C   0  0  0  0  0  0  0  0  0  0  0  0
    1.9421    3.2397    0.0000 C   0  0  0  0  0  0  0  0  0  0  0  0
    1.8861    1.7407    0.0000 C   0  0  0  0  0  0  0  0  0  0  0  0
    3.1562    0.9427    0.0000 C   0  0  0  0  0  0  0  0  0  0  0  0
   -2.6299   -3.0317    0.0000 C   0  0  0  0  0  0  0  0  0  0  0  0
   -4.0844   -2.6653    0.0000 C   0  0  0  0  0  0  0  0  0  0  0  0
   -5.1290   -3.7417    0.0000 C   0  0  0  0  0  0  0  0  0  0  0  0
   -4.4944   -1.2224    0.0000 N   0  0  0  0  0  0  0  0  0  0  0  0
   -5.9489   -0.8559    0.0000 C   0  0  0  0  0  0  0  0  0  0  0  0
   -6.3589    0.5870    0.0000 C   0  0  0  0  0  0  0  0  0  0  0  0
   -7.8134    0.9534    0.0000 N   0  0  0  0  0  0  0  0  0  0  0  0
   -8.2234    2.3963    0.0000 C   0  0  0  0  0  0  0  0  0  0  0  0
   -8.6333    3.8392    0.0000 S   0  0  0  0  0  0  0  0  0  0  0  0
  2  1  1  6
  2  3  1  0
  3  4  1  0
  4  5  1  0
  5  6  1  0
  6  7  1  0
  7  8  1  0
  8  9  1  0
  9 10  2  0
 10 11  1  0
 11 12  2  0
 12 13  1  0
 13 14  2  0
 14 15  1  0
 15 16  2  0
 16 17  1  0
 17 18  2  0
 18 19  1  0
 19 20  2  0
  4 21  1  0
 21 22  1  0
 22 23  1  6
 22 24  1  0
 24 25  1  0
 25 26  1  0
 26 27  1  0
 27 28  2  0
 28 29  2  0
 24  2  1  0
 20  8  1  0
 14  9  1  0
 20 15  1  0
M  END
>  <Compound_Key>  (1331) 
SH1/57,27

>  <Ki>  (1331) 
3008.0

>  <database>  (1331) 
NewLiterature

>  <Document_ChEMBL_ID>  (1331) 
10.4155/fmc-2017-0164

$$$$

     RDKit          2D

 24 26  0  0  0  0  0  0  0  0999 V2000
    6.9014   -2.3040    0.0000 C   0  0  0  0  0  0  0  0  0  0  0  0
    5.7124   -1.3894    0.0000 C   0  0  0  0  0  0  0  0  0  0  0  0
    4.3259   -1.9618    0.0000 C   0  0  0  0  0  0  0  0  0  0  0  0
    3.1370   -1.0473    0.0000 N   0  0  0  0  0  0  0  0  0  0  0  0
    1.7505   -1.6196    0.0000 C   0  0  0  0  0  0  0  0  0  0  0  0
    0.5616   -0.7051    0.0000 C   0  0  0  0  0  0  0  0  0  0  0  0
   -0.8249   -1.2775    0.0000 C   0  0  0  0  0  0  0  0  0  0  0  0
   -2.0139   -0.3629    0.0000 N   0  0  0  0  0  0  0  0  0  0  0  0
   -3.4004   -0.9353    0.0000 C   0  0  0  0  0  0  0  0  0  0  0  0
   -4.5893   -0.0208    0.0000 C   0  0  0  0  0  0  0  0  0  0  0  0
   -5.9758   -0.5932    0.0000 C   0  0  0  0  0  0  0  0  0  0  0  0
   -6.1734   -2.0801    0.0000 C   0  0  0  0  0  0  0  0  0  0  0  0
   -4.9844   -2.9946    0.0000 C   0  0  0  0  0  0  0  0  0  0  0  0
   -3.5979   -2.4223    0.0000 C   0  0  0  0  0  0  0  0  0  0  0  0
   -1.8163    1.1240    0.0000 C   0  0  0  0  0  0  0  0  0  0  0  0
   -0.4299    1.6964    0.0000 C   0  0  0  0  0  0  0  0  0  0  0  0
   -0.2323    3.1833    0.0000 C   0  0  0  0  0  0  0  0  0  0  0  0
   -1.4213    4.0979    0.0000 C   0  0  0  0  0  0  0  0  0  0  0  0
   -2.8078    3.5255    0.0000 C   0  0  0  0  0  0  0  0  0  0  0  0
   -3.0053    2.0385    0.0000 C   0  0  0  0  0  0  0  0  0  0  0  0
    3.3345    0.4397    0.0000 C   0  0  0  0  0  0  0  0  0  0  0  0
    4.7210    1.0121    0.0000 C   0  0  0  0  0  0  0  0  0  0  0  0
    4.9186    2.4990    0.0000 C   0  0  0  0  0  0  0  0  0  0  0  0
    5.9100    0.0975    0.0000 N   0  0  0  0  0  0  0  0  0  0  0  0
  2  1  1  6
  2  3  1  0
  3  4  1  0
  4  5  1  0
  5  6  1  0
  6  7  1  0
  7  8  1  0
  8  9  1  0
  9 10  2  0
 10 11  1  0
 11 12  2  0
 12 13  1  0
 13 14  2  0
  8 15  1  0
 15 16  2  0
 16 17  1  0
 17 18  2  0
 18 19  1  0
 19 20  2  0
  4 21  1  0
 21 22  1  0
 22 23  1  6
 22 24  1  0
 24  2  1  0
 14  9  1  0
 20 15  1  0
M  END
>  <Compound_Key>  (1332) 
SH2/21,28

>  <Ki>  (1332) 
876.0

>  <database>  (1332) 
NewLiterature

>  <Document_ChEMBL_ID>  (1332) 
10.4155/fmc-2017-0164

$$$$

     RDKit          2D

 33 36  0  0  0  0  0  0  0  0999 V2000
    4.0344   -1.7682    0.0000 C   0  0  0  0  0  0  0  0  0  0  0  0
    2.7827   -0.9415    0.0000 C   0  0  0  0  0  0  0  0  0  0  0  0
    1.4410   -1.6122    0.0000 C   0  0  0  0  0  0  0  0  0  0  0  0
    0.1894   -0.7855    0.0000 N   0  0  0  0  0  0  0  0  0  0  0  0
   -1.1524   -1.4561    0.0000 C   0  0  0  0  0  0  0  0  0  0  0  0
   -2.4040   -0.6295    0.0000 C   0  0  0  0  0  0  0  0  0  0  0  0
   -3.7458   -1.3001    0.0000 C   0  0  0  0  0  0  0  0  0  0  0  0
   -4.9974   -0.4735    0.0000 N   0  0  0  0  0  0  0  0  0  0  0  0
   -6.3392   -1.1441    0.0000 C   0  0  0  0  0  0  0  0  0  0  0  0
   -7.5908   -0.3174    0.0000 C   0  0  0  0  0  0  0  0  0  0  0  0
   -8.9325   -0.9881    0.0000 C   0  0  0  0  0  0  0  0  0  0  0  0
   -9.0226   -2.4854    0.0000 C   0  0  0  0  0  0  0  0  0  0  0  0
   -7.7710   -3.3120    0.0000 C   0  0  0  0  0  0  0  0  0  0  0  0
   -6.4292   -2.6414    0.0000 C   0  0  0  0  0  0  0  0  0  0  0  0
   -4.9073    1.0238    0.0000 C   0  0  0  0  0  0  0  0  0  0  0  0
   -3.5656    1.6945    0.0000 C   0  0  0  0  0  0  0  0  0  0  0  0
   -3.4755    3.1918    0.0000 C   0  0  0  0  0  0  0  0  0  0  0  0
   -4.7272    4.0184    0.0000 C   0  0  0  0  0  0  0  0  0  0  0  0
   -6.0689    3.3478    0.0000 C   0  0  0  0  0  0  0  0  0  0  0  0
   -6.1590    1.8505    0.0000 C   0  0  0  0  0  0  0  0  0  0  0  0
    0.2794    0.7118    0.0000 C   0  0  0  0  0  0  0  0  0  0  0  0
    1.6212    1.3824    0.0000 C   0  0  0  0  0  0  0  0  0  0  0  0
    1.7113    2.8797    0.0000 C   0  0  0  0  0  0  0  0  0  0  0  0
    2.8728    0.5557    0.0000 N   0  0  0  0  0  0  0  0  0  0  0  0
    4.2146    1.2264    0.0000 C   0  0  0  0  0  0  0  0  0  0  0  0
    5.4662    0.3997    0.0000 C   0  0  0  0  0  0  0  0  0  0  0  0
    6.8079    1.0703    0.0000 C   0  0  0  0  0  0  0  0  0  0  0  0
    8.0596    0.2437    0.0000 C   0  0  0  0  0  0  0  0  0  0  0  0
    7.9695   -1.2536    0.0000 C   0  0  0  0  0  0  0  0  0  0  0  0
    9.2212   -2.0803    0.0000 C   0  0  0  0  0  0  0  0  0  0  0  0
   10.5629   -1.4096    0.0000 C   0  0  0  0  0  0  0  0  0  0  0  0
   10.6530    0.0877    0.0000 C   0  0  0  0  0  0  0  0  0  0  0  0
    9.4013    0.9143    0.0000 C   0  0  0  0  0  0  0  0  0  0  0  0
  2  1  1  6
  2  3  1  0
  3  4  1  0
  4  5  1  0
  5  6  1  0
  6  7  1  0
  7  8  1  0
  8  9  1  0
  9 10  2  0
 10 11  1  0
 11 12  2  0
 12 13  1  0
 13 14  2  0
  8 15  1  0
 15 16  2  0
 16 17  1  0
 17 18  2  0
 18 19  1  0
 19 20  2  0
  4 21  1  0
 21 22  1  0
 22 23  1  6
 22 24  1  0
 24 25  1  0
 25 26  1  0
 26 27  1  0
 27 28  1  0
 28 29  2  0
 29 30  1  0
 30 31  2  0
 31 32  1  0
 32 33  2  0
 24  2  1  0
 33 28  1  0
 14  9  1  0
 20 15  1  0
M  END
>  <Compound_Key>  (1333) 
SH3/24,29

>  <Ki>  (1333) 
161.0

>  <database>  (1333) 
NewLiterature

>  <Document_ChEMBL_ID>  (1333) 
10.4155/fmc-2017-0164

$$$$

     RDKit          2D

 30 35  0  0  0  0  0  0  0  0999 V2000
   -8.5493    0.0290    0.0000 C   0  0  0  0  0  0  0  0  0  0  0  0
   -7.0502    0.0803    0.0000 N   0  0  0  0  0  0  0  0  0  0  0  0
   -6.3450    1.4043    0.0000 C   0  0  0  0  0  0  0  0  0  0  0  0
   -4.8459    1.4556    0.0000 C   0  0  0  0  0  0  0  0  0  0  0  0
   -4.0519    0.1829    0.0000 N   0  0  0  0  0  0  0  0  0  0  0  0
   -2.5528    0.2342    0.0000 C   0  0  0  0  0  0  0  0  0  0  0  0
   -1.7588   -1.0384    0.0000 C   0  0  0  0  0  0  0  0  0  0  0  0
   -0.2597   -0.9871    0.0000 C   0  0  0  0  0  0  0  0  0  0  0  0
    0.4454    0.3368    0.0000 C   0  0  0  0  0  0  0  0  0  0  0  0
    1.9446    0.3881    0.0000 C   0  0  0  0  0  0  0  0  0  0  0  0
    2.6497    1.7121    0.0000 C   0  0  0  0  0  0  0  0  0  0  0  0
    4.1488    1.7634    0.0000 C   0  0  0  0  0  0  0  0  0  0  0  0
    4.8540    3.0873    0.0000 C   0  0  0  0  0  0  0  0  0  0  0  0
    4.0600    4.3599    0.0000 C   0  0  0  0  0  0  0  0  0  0  0  0
    2.5608    4.3086    0.0000 C   0  0  0  0  0  0  0  0  0  0  0  0
    1.8557    2.9847    0.0000 C   0  0  0  0  0  0  0  0  0  0  0  0
    2.7385   -0.8845    0.0000 C   0  0  0  0  0  0  0  0  0  0  0  0
    2.0334   -2.2084    0.0000 C   0  0  0  0  0  0  0  0  0  0  0  0
    2.8274   -3.4810    0.0000 C   0  0  0  0  0  0  0  0  0  0  0  0
    4.3265   -3.4297    0.0000 C   0  0  0  0  0  0  0  0  0  0  0  0
    5.0317   -2.1058    0.0000 C   0  0  0  0  0  0  0  0  0  0  0  0
    1.8069   -1.4657    0.0000 C   0  0  0  0  0  0  0  0  0  0  0  0
    0.5343   -2.2597    0.0000 C   0  0  0  0  0  0  0  0  0  0  0  0
    1.3283   -3.5323    0.0000 C   0  0  0  0  0  0  0  0  0  0  0  0
    1.2394   -0.9358    0.0000 C   0  0  0  0  0  0  0  0  0  0  0  0
    4.2377   -0.8332    0.0000 C   0  0  0  0  0  0  0  0  0  0  0  0
   -0.3485    1.6095    0.0000 C   0  0  0  0  0  0  0  0  0  0  0  0
   -1.8477    1.5582    0.0000 C   0  0  0  0  0  0  0  0  0  0  0  0
   -4.7571   -1.1410    0.0000 C   0  0  0  0  0  0  0  0  0  0  0  0
   -6.2562   -1.1923    0.0000 C   0  0  0  0  0  0  0  0  0  0  0  0
  1  2  1  0
  2  3  1  0
  3  4  1  0
  4  5  1  0
  5  6  1  0
  6  7  2  0
  7  8  1  0
  8  9  2  0
  9 10  1  0
 10 11  1  0
 11 12  2  0
 12 13  1  0
 13 14  2  0
 14 15  1  0
 15 16  2  0
 10 17  1  0
 17 18  1  0
 18 19  1  0
 19 20  1  0
 20 21  1  0
 21 22  1  0
 22 23  1  0
 23 24  1  0
 23 25  1  0
 21 26  1  0
  9 27  1  0
 27 28  2  0
  5 29  1  0
 29 30  1  0
 30  2  1  0
 28  6  1  0
 16 11  1  0
 25 17  1  0
 26 17  1  0
 24 19  1  0
M  END
>  <Compound_Key>  (1334) 
30a

>  <Ki>  (1334) 
37.6

>  <database>  (1334) 
NewLiterature

>  <Document_ChEMBL_ID>  (1334) 
10.4155/fmc-2017-0164

$$$$

     RDKit          2D

 31 36  0  0  0  0  0  0  0  0999 V2000
   -9.0753    0.9907    0.0000 C   0  0  0  0  0  0  0  0  0  0  0  0
   -8.2439   -0.2578    0.0000 C   0  0  0  0  0  0  0  0  0  0  0  0
   -6.7469   -0.1620    0.0000 N   0  0  0  0  0  0  0  0  0  0  0  0
   -6.0814    1.1823    0.0000 C   0  0  0  0  0  0  0  0  0  0  0  0
   -4.5845    1.2780    0.0000 C   0  0  0  0  0  0  0  0  0  0  0  0
   -3.7531    0.0296    0.0000 N   0  0  0  0  0  0  0  0  0  0  0  0
   -2.2561    0.1253    0.0000 C   0  0  0  0  0  0  0  0  0  0  0  0
   -1.4247   -1.1232    0.0000 C   0  0  0  0  0  0  0  0  0  0  0  0
    0.0722   -1.0274    0.0000 C   0  0  0  0  0  0  0  0  0  0  0  0
    0.7378    0.3169    0.0000 C   0  0  0  0  0  0  0  0  0  0  0  0
    2.2347    0.4127    0.0000 C   0  0  0  0  0  0  0  0  0  0  0  0
    2.9002    1.7570    0.0000 C   0  0  0  0  0  0  0  0  0  0  0  0
    4.3972    1.8527    0.0000 C   0  0  0  0  0  0  0  0  0  0  0  0
    5.0627    3.1970    0.0000 C   0  0  0  0  0  0  0  0  0  0  0  0
    4.2313    4.4455    0.0000 C   0  0  0  0  0  0  0  0  0  0  0  0
    2.7343    4.3497    0.0000 C   0  0  0  0  0  0  0  0  0  0  0  0
    2.0688    3.0054    0.0000 C   0  0  0  0  0  0  0  0  0  0  0  0
    3.0661   -0.8358    0.0000 C   0  0  0  0  0  0  0  0  0  0  0  0
    2.4006   -2.1801    0.0000 C   0  0  0  0  0  0  0  0  0  0  0  0
    3.2320   -3.4286    0.0000 C   0  0  0  0  0  0  0  0  0  0  0  0
    4.7289   -3.3328    0.0000 C   0  0  0  0  0  0  0  0  0  0  0  0
    5.3945   -1.9885    0.0000 C   0  0  0  0  0  0  0  0  0  0  0  0
    2.1521   -1.4445    0.0000 C   0  0  0  0  0  0  0  0  0  0  0  0
    0.9036   -2.2759    0.0000 C   0  0  0  0  0  0  0  0  0  0  0  0
    1.7351   -3.5244    0.0000 C   0  0  0  0  0  0  0  0  0  0  0  0
    1.5692   -0.9316    0.0000 C   0  0  0  0  0  0  0  0  0  0  0  0
    4.5630   -0.7400    0.0000 C   0  0  0  0  0  0  0  0  0  0  0  0
   -0.0937    1.5654    0.0000 C   0  0  0  0  0  0  0  0  0  0  0  0
   -1.5906    1.4696    0.0000 C   0  0  0  0  0  0  0  0  0  0  0  0
   -4.4186   -1.3147    0.0000 C   0  0  0  0  0  0  0  0  0  0  0  0
   -5.9155   -1.4105    0.0000 C   0  0  0  0  0  0  0  0  0  0  0  0
  1  2  1  0
  2  3  1  0
  3  4  1  0
  4  5  1  0
  5  6  1  0
  6  7  1  0
  7  8  2  0
  8  9  1  0
  9 10  2  0
 10 11  1  0
 11 12  1  0
 12 13  2  0
 13 14  1  0
 14 15  2  0
 15 16  1  0
 16 17  2  0
 11 18  1  0
 18 19  1  0
 19 20  1  0
 20 21  1  0
 21 22  1  0
 22 23  1  0
 23 24  1  0
 24 25  1  0
 24 26  1  0
 22 27  1  0
 10 28  1  0
 28 29  2  0
  6 30  1  0
 30 31  1  0
 31  3  1  0
 29  7  1  0
 17 12  1  0
 26 18  1  0
 27 18  1  0
 25 20  1  0
M  END
>  <Compound_Key>  (1335) 
30b

>  <Ki>  (1335) 
4.0

>  <database>  (1335) 
NewLiterature

>  <Document_ChEMBL_ID>  (1335) 
10.4155/fmc-2017-0164

$$$$

     RDKit          2D

 35 41  0  0  0  0  0  0  0  0999 V2000
    5.5459    4.3548    0.0000 C   0  0  0  0  0  0  0  0  0  0  0  0
    6.3377    3.0808    0.0000 C   0  0  0  0  0  0  0  0  0  0  0  0
    5.6302    1.7581    0.0000 C   0  0  0  0  0  0  0  0  0  0  0  0
    4.1310    1.7095    0.0000 C   0  0  0  0  0  0  0  0  0  0  0  0
    3.4236    0.3868    0.0000 C   0  0  0  0  0  0  0  0  0  0  0  0
    1.9244    0.3381    0.0000 C   0  0  0  0  0  0  0  0  0  0  0  0
    1.1326    1.6121    0.0000 C   0  0  0  0  0  0  0  0  0  0  0  0
   -0.3666    1.5635    0.0000 C   0  0  0  0  0  0  0  0  0  0  0  0
   -1.0741    0.2408    0.0000 C   0  0  0  0  0  0  0  0  0  0  0  0
   -2.5733    0.1921    0.0000 N   0  0  0  0  0  0  0  0  0  0  0  0
   -3.3650    1.4661    0.0000 C   0  0  0  0  0  0  0  0  0  0  0  0
   -4.8642    1.4175    0.0000 C   0  0  0  0  0  0  0  0  0  0  0  0
   -5.5717    0.0948    0.0000 N   0  0  0  0  0  0  0  0  0  0  0  0
   -7.0709    0.0461    0.0000 C   0  0  0  0  0  0  0  0  0  0  0  0
   -7.8627    1.3201    0.0000 C   0  0  0  0  0  0  0  0  0  0  0  0
   -9.3619    1.2714    0.0000 C   0  0  0  0  0  0  0  0  0  0  0  0
  -10.0693   -0.0512    0.0000 C   0  0  0  0  0  0  0  0  0  0  0  0
   -9.2776   -1.3253    0.0000 C   0  0  0  0  0  0  0  0  0  0  0  0
   -7.7784   -1.2766    0.0000 C   0  0  0  0  0  0  0  0  0  0  0  0
   -4.7799   -1.1793    0.0000 C   0  0  0  0  0  0  0  0  0  0  0  0
   -3.2807   -1.1306    0.0000 C   0  0  0  0  0  0  0  0  0  0  0  0
   -0.2823   -1.0332    0.0000 C   0  0  0  0  0  0  0  0  0  0  0  0
    1.2169   -0.9846    0.0000 C   0  0  0  0  0  0  0  0  0  0  0  0
    4.2153   -0.8872    0.0000 C   0  0  0  0  0  0  0  0  0  0  0  0
    3.5079   -2.2099    0.0000 C   0  0  0  0  0  0  0  0  0  0  0  0
    4.2996   -3.4839    0.0000 C   0  0  0  0  0  0  0  0  0  0  0  0
    5.7988   -3.4353    0.0000 C   0  0  0  0  0  0  0  0  0  0  0  0
    6.5063   -2.1126    0.0000 C   0  0  0  0  0  0  0  0  0  0  0  0
    3.2827   -1.4668    0.0000 C   0  0  0  0  0  0  0  0  0  0  0  0
    2.0087   -2.2586    0.0000 C   0  0  0  0  0  0  0  0  0  0  0  0
    2.8004   -3.5326    0.0000 C   0  0  0  0  0  0  0  0  0  0  0  0
    2.7161   -0.9359    0.0000 C   0  0  0  0  0  0  0  0  0  0  0  0
    5.7145   -0.8386    0.0000 C   0  0  0  0  0  0  0  0  0  0  0  0
    3.3393    2.9835    0.0000 C   0  0  0  0  0  0  0  0  0  0  0  0
    4.0467    4.3062    0.0000 C   0  0  0  0  0  0  0  0  0  0  0  0
  1  2  2  0
  2  3  1  0
  3  4  2  0
  4  5  1  0
  5  6  1  0
  6  7  2  0
  7  8  1  0
  8  9  2  0
  9 10  1  0
 10 11  1  0
 11 12  1  0
 12 13  1  0
 13 14  1  0
 14 15  1  0
 15 16  1  0
 16 17  1  0
 17 18  1  0
 18 19  1  0
 13 20  1  0
 20 21  1  0
  9 22  1  0
 22 23  2  0
  5 24  1  0
 24 25  1  0
 25 26  1  0
 26 27  1  0
 27 28  1  0
 28 29  1  0
 29 30  1  0
 30 31  1  0
 30 32  1  0
 28 33  1  0
  4 34  1  0
 34 35  2  0
 35  1  1  0
 23  6  1  0
 32 24  1  0
 21 10  1  0
 33 24  1  0
 19 14  1  0
 31 26  1  0
M  END
>  <Compound_Key>  (1336) 
30c

>  <Ki>  (1336) 
97.0

>  <database>  (1336) 
NewLiterature

>  <Document_ChEMBL_ID>  (1336) 
10.4155/fmc-2017-0164

$$$$

     RDKit          2D

 35 41  0  0  0  0  0  0  0  0999 V2000
    5.5459    4.3548    0.0000 C   0  0  0  0  0  0  0  0  0  0  0  0
    6.3377    3.0808    0.0000 C   0  0  0  0  0  0  0  0  0  0  0  0
    5.6302    1.7581    0.0000 C   0  0  0  0  0  0  0  0  0  0  0  0
    4.1310    1.7095    0.0000 C   0  0  0  0  0  0  0  0  0  0  0  0
    3.4236    0.3868    0.0000 C   0  0  0  0  0  0  0  0  0  0  0  0
    1.9244    0.3381    0.0000 C   0  0  0  0  0  0  0  0  0  0  0  0
    1.1326    1.6121    0.0000 C   0  0  0  0  0  0  0  0  0  0  0  0
   -0.3666    1.5635    0.0000 C   0  0  0  0  0  0  0  0  0  0  0  0
   -1.0741    0.2408    0.0000 C   0  0  0  0  0  0  0  0  0  0  0  0
   -2.5733    0.1921    0.0000 N   0  0  0  0  0  0  0  0  0  0  0  0
   -3.3650    1.4661    0.0000 C   0  0  0  0  0  0  0  0  0  0  0  0
   -4.8642    1.4175    0.0000 C   0  0  0  0  0  0  0  0  0  0  0  0
   -5.5717    0.0948    0.0000 N   0  0  0  0  0  0  0  0  0  0  0  0
   -7.0709    0.0461    0.0000 C   0  0  0  0  0  0  0  0  0  0  0  0
   -7.8627    1.3201    0.0000 C   0  0  0  0  0  0  0  0  0  0  0  0
   -9.3619    1.2714    0.0000 C   0  0  0  0  0  0  0  0  0  0  0  0
  -10.0693   -0.0512    0.0000 C   0  0  0  0  0  0  0  0  0  0  0  0
   -9.2776   -1.3253    0.0000 C   0  0  0  0  0  0  0  0  0  0  0  0
   -7.7784   -1.2766    0.0000 C   0  0  0  0  0  0  0  0  0  0  0  0
   -4.7799   -1.1793    0.0000 C   0  0  0  0  0  0  0  0  0  0  0  0
   -3.2807   -1.1306    0.0000 C   0  0  0  0  0  0  0  0  0  0  0  0
   -0.2823   -1.0332    0.0000 C   0  0  0  0  0  0  0  0  0  0  0  0
    1.2169   -0.9846    0.0000 C   0  0  0  0  0  0  0  0  0  0  0  0
    4.2153   -0.8872    0.0000 C   0  0  0  0  0  0  0  0  0  0  0  0
    3.5079   -2.2099    0.0000 C   0  0  0  0  0  0  0  0  0  0  0  0
    4.2996   -3.4839    0.0000 C   0  0  0  0  0  0  0  0  0  0  0  0
    5.7988   -3.4353    0.0000 C   0  0  0  0  0  0  0  0  0  0  0  0
    6.5063   -2.1126    0.0000 C   0  0  0  0  0  0  0  0  0  0  0  0
    3.2827   -1.4668    0.0000 C   0  0  0  0  0  0  0  0  0  0  0  0
    2.0087   -2.2586    0.0000 C   0  0  0  0  0  0  0  0  0  0  0  0
    2.8004   -3.5326    0.0000 C   0  0  0  0  0  0  0  0  0  0  0  0
    2.7161   -0.9359    0.0000 C   0  0  0  0  0  0  0  0  0  0  0  0
    5.7145   -0.8386    0.0000 C   0  0  0  0  0  0  0  0  0  0  0  0
    3.3393    2.9835    0.0000 C   0  0  0  0  0  0  0  0  0  0  0  0
    4.0467    4.3062    0.0000 C   0  0  0  0  0  0  0  0  0  0  0  0
  1  2  2  0
  2  3  1  0
  3  4  2  0
  4  5  1  0
  5  6  1  0
  6  7  2  0
  7  8  1  0
  8  9  2  0
  9 10  1  0
 10 11  1  0
 11 12  1  0
 12 13  1  0
 13 14  1  0
 14 15  2  0
 15 16  1  0
 16 17  2  0
 17 18  1  0
 18 19  2  0
 13 20  1  0
 20 21  1  0
  9 22  1  0
 22 23  2  0
  5 24  1  0
 24 25  1  0
 25 26  1  0
 26 27  1  0
 27 28  1  0
 28 29  1  0
 29 30  1  0
 30 31  1  0
 30 32  1  0
 28 33  1  0
  4 34  1  0
 34 35  2  0
 35  1  1  0
 23  6  1  0
 32 24  1  0
 21 10  1  0
 33 24  1  0
 19 14  1  0
 31 26  1  0
M  END
>  <Compound_Key>  (1337) 
30d

>  <Ki>  (1337) 
119.0

>  <database>  (1337) 
NewLiterature

>  <Document_ChEMBL_ID>  (1337) 
10.4155/fmc-2017-0164

$$$$

     RDKit          2D

 29 32  0  0  0  0  0  0  0  0999 V2000
   -7.0878    0.1579    0.0000 O   0  0  0  0  0  0  0  0  0  0  0  0
   -5.8535   -0.6943    0.0000 C   0  0  0  0  0  0  0  0  0  0  0  0
   -5.9744   -2.1894    0.0000 C   0  0  0  0  0  0  0  0  0  0  0  0
   -4.7400   -3.0417    0.0000 C   0  0  0  0  0  0  0  0  0  0  0  0
   -3.3847   -2.3988    0.0000 C   0  0  0  0  0  0  0  0  0  0  0  0
   -2.1504   -3.2511    0.0000 C   0  0  0  0  0  0  0  0  0  0  0  0
   -0.7951   -2.6082    0.0000 C   0  0  0  0  0  0  0  0  0  0  0  0
   -0.6742   -1.1131    0.0000 C   0  0  0  0  0  0  0  0  0  0  0  0
    0.6810   -0.4702    0.0000 O   0  0  0  0  0  0  0  0  0  0  0  0
    1.9154   -1.3225    0.0000 C   0  0  0  0  0  0  0  0  0  0  0  0
    3.2707   -0.6796    0.0000 C   0  0  0  0  0  0  0  0  0  0  0  0
    4.5050   -1.5318    0.0000 C   0  0  0  0  0  0  0  0  0  0  0  0
    5.8603   -0.8890    0.0000 N   0  0  0  0  0  0  0  0  0  0  0  0
    7.0947   -1.7412    0.0000 C   0  0  0  0  0  0  0  0  0  0  0  0
    8.4499   -1.0983    0.0000 C   0  0  0  0  0  0  0  0  0  0  0  0
    8.5708    0.3968    0.0000 C   0  0  0  0  0  0  0  0  0  0  0  0
    7.3364    1.2490    0.0000 C   0  0  0  0  0  0  0  0  0  0  0  0
    5.9812    0.6062    0.0000 C   0  0  0  0  0  0  0  0  0  0  0  0
   -1.9086   -0.2608    0.0000 C   0  0  0  0  0  0  0  0  0  0  0  0
   -3.2638   -0.9037    0.0000 C   0  0  0  0  0  0  0  0  0  0  0  0
   -4.4982   -0.0515    0.0000 N   0  0  0  0  0  0  0  0  0  0  0  0
   -4.3773    1.4437    0.0000 C   0  0  0  0  0  0  0  0  0  0  0  0
   -3.0221    2.0865    0.0000 C   0  0  0  0  0  0  0  0  0  0  0  0
   -1.7877    1.2343    0.0000 C   0  0  0  0  0  0  0  0  0  0  0  0
   -0.4325    1.8772    0.0000 C   0  0  0  0  0  0  0  0  0  0  0  0
   -0.3116    3.3723    0.0000 C   0  0  0  0  0  0  0  0  0  0  0  0
    1.0437    4.0152    0.0000 F   0  0  0  0  0  0  0  0  0  0  0  0
   -1.5459    4.2245    0.0000 C   0  0  0  0  0  0  0  0  0  0  0  0
   -2.9012    3.5817    0.0000 C   0  0  0  0  0  0  0  0  0  0  0  0
  1  2  2  0
  2  3  1  0
  3  4  1  0
  4  5  1  0
  5  6  2  0
  6  7  1  0
  7  8  2  0
  8  9  1  0
  9 10  1  0
 10 11  1  0
 11 12  1  0
 12 13  1  0
 13 14  1  0
 14 15  1  0
 15 16  1  0
 16 17  1  0
 17 18  1  0
  8 19  1  0
 19 20  2  0
 20 21  1  0
 21 22  1  0
 22 23  1  0
 23 24  2  0
 24 25  1  0
 25 26  2  0
 26 27  1  0
 26 28  1  0
 28 29  2  0
 21  2  1  0
 29 23  1  0
 20  5  1  0
 18 13  1  0
M  END
>  <Compound_Key>  (1338) 
36

>  <Ki>  (1338) 
1301.0

>  <database>  (1338) 
NewLiterature

>  <Document_ChEMBL_ID>  (1338) 
10.4155/fmc-2017-0164

$$$$

     RDKit          2D

 30 33  0  0  0  0  0  0  0  0999 V2000
  -10.1715    1.6423    0.0000 C   0  0  0  0  0  0  0  0  0  0  0  0
   -8.6972    1.3660    0.0000 C   0  0  0  0  0  0  0  0  0  0  0  0
   -7.7207    2.5046    0.0000 C   0  0  0  0  0  0  0  0  0  0  0  0
   -6.2464    2.2282    0.0000 C   0  0  0  0  0  0  0  0  0  0  0  0
   -5.7486    0.8132    0.0000 N   0  0  0  0  0  0  0  0  0  0  0  0
   -4.2743    0.5369    0.0000 C   0  0  0  0  0  0  0  0  0  0  0  0
   -3.7764   -0.8781    0.0000 C   0  0  0  0  0  0  0  0  0  0  0  0
   -2.3021   -1.1545    0.0000 C   0  0  0  0  0  0  0  0  0  0  0  0
   -1.8043   -2.5694    0.0000 O   0  0  0  0  0  0  0  0  0  0  0  0
   -0.3300   -2.8458    0.0000 C   0  0  0  0  0  0  0  0  0  0  0  0
    0.1679   -4.2608    0.0000 C   0  0  0  0  0  0  0  0  0  0  0  0
    1.6422   -4.5372    0.0000 C   0  0  0  0  0  0  0  0  0  0  0  0
    2.6187   -3.3985    0.0000 C   0  0  0  0  0  0  0  0  0  0  0  0
    2.1209   -1.9836    0.0000 C   0  0  0  0  0  0  0  0  0  0  0  0
    0.6465   -1.7072    0.0000 C   0  0  0  0  0  0  0  0  0  0  0  0
    3.0974   -0.8449    0.0000 N   0  0  0  0  0  0  0  0  0  0  0  0
    2.5995    0.5700    0.0000 C   0  0  0  0  0  0  0  0  0  0  0  0
    3.5760    1.7087    0.0000 C   0  0  0  0  0  0  0  0  0  0  0  0
    5.0503    1.4323    0.0000 C   0  0  0  0  0  0  0  0  0  0  0  0
    6.0268    2.5709    0.0000 C   0  0  0  0  0  0  0  0  0  0  0  0
    5.5290    3.9859    0.0000 C   0  0  0  0  0  0  0  0  0  0  0  0
    6.5055    5.1245    0.0000 F   0  0  0  0  0  0  0  0  0  0  0  0
    4.0547    4.2623    0.0000 C   0  0  0  0  0  0  0  0  0  0  0  0
    3.0782    3.1236    0.0000 C   0  0  0  0  0  0  0  0  0  0  0  0
    4.5717   -1.1213    0.0000 C   0  0  0  0  0  0  0  0  0  0  0  0
    5.5482    0.0173    0.0000 O   0  0  0  0  0  0  0  0  0  0  0  0
    5.0695   -2.5363    0.0000 C   0  0  0  0  0  0  0  0  0  0  0  0
    4.0930   -3.6749    0.0000 C   0  0  0  0  0  0  0  0  0  0  0  0
   -6.7251   -0.3254    0.0000 C   0  0  0  0  0  0  0  0  0  0  0  0
   -8.1994   -0.0490    0.0000 C   0  0  0  0  0  0  0  0  0  0  0  0
  1  2  1  0
  2  3  1  0
  3  4  1  0
  4  5  1  0
  5  6  1  0
  6  7  1  0
  7  8  1  0
  8  9  1  0
  9 10  1  0
 10 11  2  0
 11 12  1  0
 12 13  2  0
 13 14  1  0
 14 15  2  0
 14 16  1  0
 16 17  1  0
 17 18  1  0
 18 19  2  0
 19 20  1  0
 20 21  2  0
 21 22  1  0
 21 23  1  0
 23 24  2  0
 16 25  1  0
 25 26  2  0
 25 27  1  0
 27 28  1  0
  5 29  1  0
 29 30  1  0
 30  2  1  0
 15 10  1  0
 24 18  1  0
 28 13  1  0
M  END
>  <Compound_Key>  (1339) 
37

>  <Ki>  (1339) 
960.0

>  <database>  (1339) 
NewLiterature

>  <Document_ChEMBL_ID>  (1339) 
10.4155/fmc-2017-0164

$$$$

     RDKit          2D

 25 28  0  0  0  0  0  0  0  0999 V2000
    0.9742    2.1728    0.0000 C   0  0  0  0  0  0  0  0  0  0  0  0
    1.4103    1.5055    0.0000 C   0  0  0  0  0  0  0  0  0  0  0  0
    0.4295    0.3706    0.0000 C   0  0  0  0  0  0  0  0  0  0  0  0
    0.9219   -1.0463    0.0000 C   0  0  0  0  0  0  0  0  0  0  0  0
    2.3952   -1.3282    0.0000 C   0  0  0  0  0  0  0  0  0  0  0  0
    2.8876   -2.7451    0.0000 C   0  0  0  0  0  0  0  0  0  0  0  0
    4.3609   -3.0271    0.0000 C   0  0  0  0  0  0  0  0  0  0  0  0
    5.3417   -1.8922    0.0000 C   0  0  0  0  0  0  0  0  0  0  0  0
    6.8150   -2.1741    0.0000 O   0  0  0  0  0  0  0  0  0  0  0  0
    4.8493   -0.4753    0.0000 C   0  0  0  0  0  0  0  0  0  0  0  0
    3.3760   -0.1933    0.0000 C   0  0  0  0  0  0  0  0  0  0  0  0
    2.8835    1.2235    0.0000 C   0  0  0  0  0  0  0  0  0  0  0  0
    3.8644    2.3584    0.0000 C   0  0  0  0  0  0  0  0  0  0  0  0
    2.3911    2.6404    0.0000 C   0  0  0  0  0  0  0  0  0  0  0  0
    0.9178    2.9224    0.0000 C   0  0  0  0  0  0  0  0  0  0  0  0
   -0.0630    1.7875    0.0000 N   0  0  0  0  0  0  0  0  0  0  0  0
   -1.5362    2.0694    0.0000 C   0  0  0  0  0  0  0  0  0  0  0  0
   -2.5171    0.9345    0.0000 C   0  0  0  0  0  0  0  0  0  0  0  0
   -3.9903    1.2165    0.0000 N   0  0  0  0  0  0  0  0  0  0  0  0
   -4.9711    0.0816    0.0000 C   0  0  0  0  0  0  0  0  0  0  0  0
   -6.4444    0.3635    0.0000 C   0  0  0  0  0  0  0  0  0  0  0  0
   -7.4252   -0.7714    0.0000 C   0  0  0  0  0  0  0  0  0  0  0  0
   -6.9328   -2.1882    0.0000 C   0  0  0  0  0  0  0  0  0  0  0  0
   -5.4595   -2.4702    0.0000 C   0  0  0  0  0  0  0  0  0  0  0  0
   -4.4787   -1.3353    0.0000 C   0  0  0  0  0  0  0  0  0  0  0  0
  2  1  1  1
  2  3  1  0
  3  4  1  6
  4  5  1  0
  5  6  2  0
  6  7  1  0
  7  8  2  0
  8  9  1  0
  8 10  1  0
 10 11  2  0
 11 12  1  0
 12 13  1  6
 12 14  1  0
 14 15  1  0
 15 16  1  0
 16 17  1  0
 17 18  1  0
 18 19  1  0
 19 20  1  0
 20 21  1  0
 21 22  1  0
 22 23  1  0
 23 24  1  0
 24 25  1  0
 12  2  1  0
 25 20  1  0
 16  3  1  0
 11  5  1  0
M  END
>  <ChemBL_ID>  (1340) 
CHEMBL38697

>  <Compound_Key>  (1340) 
7c

>  <Ki>  (1340) 
328.0

>  <database>  (1340) 
CHEMBL

>  <Assay_ChEMBL_ID>  (1340) 
CHEMBL805218

>  <Document_ChEMBL_ID>  (1340) 
CHEMBL1131505

$$$$

     RDKit          2D

 21 22  0  0  0  0  0  0  0  0999 V2000
   -0.5307   -2.0402    0.0000 O   0  0  0  0  0  0  0  0  0  0  0  0
   -0.1958   -0.5780    0.0000 C   0  0  0  0  0  0  0  0  0  0  0  0
    1.2378   -0.1369    0.0000 C   0  0  0  0  0  0  0  0  0  0  0  0
    2.3367   -1.1580    0.0000 O   0  0  0  0  0  0  0  0  0  0  0  0
    3.7704   -0.7170    0.0000 C   0  0  0  0  0  0  0  0  0  0  0  0
    4.8692   -1.7380    0.0000 C   0  0  0  0  0  0  0  0  0  0  0  0
    6.3029   -1.2970    0.0000 C   0  0  0  0  0  0  0  0  0  0  0  0
    6.6377    0.1652    0.0000 C   0  0  0  0  0  0  0  0  0  0  0  0
    8.0714    0.6063    0.0000 Cl  0  0  0  0  0  0  0  0  0  0  0  0
    5.5389    1.1863    0.0000 C   0  0  0  0  0  0  0  0  0  0  0  0
    5.8738    2.6484    0.0000 Cl  0  0  0  0  0  0  0  0  0  0  0  0
    4.1052    0.7452    0.0000 C   0  0  0  0  0  0  0  0  0  0  0  0
   -1.2947    0.4431    0.0000 N   0  0  0  0  0  0  0  0  0  0  0  0
   -2.7283    0.0020    0.0000 C   0  0  0  0  0  0  0  0  0  0  0  0
   -3.8272    1.0231    0.0000 C   0  0  0  0  0  0  0  0  0  0  0  0
   -5.2609    0.5820    0.0000 N   0  0  0  0  0  0  0  0  0  0  0  0
   -6.3597    1.6031    0.0000 C   0  0  0  0  0  0  0  0  0  0  0  0
   -7.7934    1.1620    0.0000 C   0  0  0  0  0  0  0  0  0  0  0  0
   -8.1282   -0.3001    0.0000 O   0  0  0  0  0  0  0  0  0  0  0  0
   -7.0294   -1.3212    0.0000 C   0  0  0  0  0  0  0  0  0  0  0  0
   -5.5957   -0.8801    0.0000 C   0  0  0  0  0  0  0  0  0  0  0  0
  1  2  2  0
  2  3  1  0
  3  4  1  0
  4  5  1  0
  5  6  2  0
  6  7  1  0
  7  8  2  0
  8  9  1  0
  8 10  1  0
 10 11  1  0
 10 12  2  0
  2 13  1  0
 13 14  1  0
 14 15  1  0
 15 16  1  0
 16 17  1  0
 17 18  1  0
 18 19  1  0
 19 20  1  0
 20 21  1  0
 12  5  1  0
 21 16  1  0
M  END
>  <Compound_Key>  (1341) 
46

>  <Ki>  (1341) 
1500.0

>  <database>  (1341) 
NewLiterature

>  <Document_ChEMBL_ID>  (1341) 
10.4155/fmc-2017-0164

$$$$

     RDKit          2D

 21 23  0  0  0  0  0  0  0  0999 V2000
   -7.3963   -1.5398    0.0000 F   0  0  0  0  0  0  0  0  0  0  0  0
   -6.4938   -0.3417    0.0000 C   0  0  0  0  0  0  0  0  0  0  0  0
   -7.0802    1.0390    0.0000 C   0  0  0  0  0  0  0  0  0  0  0  0
   -6.1777    2.2371    0.0000 C   0  0  0  0  0  0  0  0  0  0  0  0
   -4.6888    2.0546    0.0000 C   0  0  0  0  0  0  0  0  0  0  0  0
   -4.1024    0.6740    0.0000 C   0  0  0  0  0  0  0  0  0  0  0  0
   -2.6136    0.4915    0.0000 O   0  0  0  0  0  0  0  0  0  0  0  0
   -2.0272   -0.8892    0.0000 C   0  0  0  0  0  0  0  0  0  0  0  0
   -0.5384   -1.0717    0.0000 C   0  0  0  0  0  0  0  0  0  0  0  0
    0.4844    0.0256    0.0000 C   0  0  0  0  0  0  0  0  0  0  0  0
    1.8440   -0.6081    0.0000 C   0  0  0  0  0  0  0  0  0  0  0  0
    3.1558    0.1194    0.0000 O   0  0  0  0  0  0  0  0  0  0  0  0
    4.4417   -0.6529    0.0000 C   0  0  0  0  0  0  0  0  0  0  0  0
    5.7535    0.0746    0.0000 C   0  0  0  0  0  0  0  0  0  0  0  0
    5.9360    1.5634    0.0000 C   0  0  0  0  0  0  0  0  0  0  0  0
    7.4084    1.8499    0.0000 C   0  0  0  0  0  0  0  0  0  0  0  0
    8.1358    0.5381    0.0000 C   0  0  0  0  0  0  0  0  0  0  0  0
    7.1131   -0.5591    0.0000 N   0  0  0  0  0  0  0  0  0  0  0  0
    1.6615   -2.0970    0.0000 N   0  0  0  0  0  0  0  0  0  0  0  0
    0.1891   -2.3835    0.0000 O   0  0  0  0  0  0  0  0  0  0  0  0
   -5.0049   -0.5242    0.0000 C   0  0  0  0  0  0  0  0  0  0  0  0
  1  2  1  0
  2  3  2  0
  3  4  1  0
  4  5  2  0
  5  6  1  0
  6  7  1  0
  7  8  1  0
  8  9  1  0
  9 10  2  0
 10 11  1  0
 11 12  1  0
 12 13  1  0
 14 13  1  6
 14 15  1  0
 15 16  1  0
 16 17  1  0
 17 18  1  0
 11 19  2  0
 19 20  1  0
  6 21  2  0
 21  2  1  0
 20  9  1  0
 18 14  1  0
M  END
>  <Compound_Key>  (1342) 
47

>  <Ki>  (1342) 
277.0

>  <database>  (1342) 
NewLiterature

>  <Document_ChEMBL_ID>  (1342) 
10.4155/fmc-2017-0164

$$$$

     RDKit          2D

 22 24  0  0  0  0  0  0  0  0999 V2000
   -7.2811    0.0629    0.0000 C   0  0  0  0  0  0  0  0  0  0  0  0
   -5.7837    0.1505    0.0000 N   0  0  0  0  0  0  0  0  0  0  0  0
   -4.9591   -1.1025    0.0000 C   0  0  0  0  0  0  0  0  0  0  0  0
   -3.4616   -1.0149    0.0000 C   0  0  0  0  0  0  0  0  0  0  0  0
   -2.6370   -2.2679    0.0000 O   0  0  0  0  0  0  0  0  0  0  0  0
   -1.1396   -2.1803    0.0000 C   0  0  0  0  0  0  0  0  0  0  0  0
   -0.3303   -0.9173    0.0000 C   0  0  0  0  0  0  0  0  0  0  0  0
    1.1209   -1.2967    0.0000 C   0  0  0  0  0  0  0  0  0  0  0  0
    2.2809   -0.3457    0.0000 C   0  0  0  0  0  0  0  0  0  0  0  0
    3.6845   -0.8747    0.0000 O   0  0  0  0  0  0  0  0  0  0  0  0
    4.8444    0.0764    0.0000 C   0  0  0  0  0  0  0  0  0  0  0  0
    6.2481   -0.4527    0.0000 C   0  0  0  0  0  0  0  0  0  0  0  0
    7.4080    0.4984    0.0000 C   0  0  0  0  0  0  0  0  0  0  0  0
    7.1644    1.9785    0.0000 C   0  0  0  0  0  0  0  0  0  0  0  0
    5.7607    2.5075    0.0000 C   0  0  0  0  0  0  0  0  0  0  0  0
    4.6008    1.5564    0.0000 C   0  0  0  0  0  0  0  0  0  0  0  0
    1.2085   -2.7942    0.0000 O   0  0  0  0  0  0  0  0  0  0  0  0
   -0.1885   -3.3402    0.0000 N   0  0  0  0  0  0  0  0  0  0  0  0
   -5.1108    1.4912    0.0000 C   0  0  0  0  0  0  0  0  0  0  0  0
   -3.6871    1.9633    0.0000 C   0  0  0  0  0  0  0  0  0  0  0  0
   -4.1593    3.3871    0.0000 C   0  0  0  0  0  0  0  0  0  0  0  0
   -5.5830    2.9149    0.0000 C   0  0  0  0  0  0  0  0  0  0  0  0
  1  2  1  0
  2  3  1  0
  3  4  1  0
  4  5  1  0
  5  6  1  0
  6  7  1  0
  7  8  2  0
  8  9  1  0
  9 10  1  0
 10 11  1  0
 11 12  2  0
 12 13  1  0
 13 14  2  0
 14 15  1  0
 15 16  2  0
  8 17  1  0
 17 18  1  0
  2 19  1  0
 19 20  1  0
 20 21  1  0
 21 22  1  0
 18  6  2  0
 22 19  1  0
 16 11  1  0
M  END
>  <Compound_Key>  (1343) 
49

>  <Ki>  (1343) 
307.0

>  <database>  (1343) 
NewLiterature

>  <Document_ChEMBL_ID>  (1343) 
10.4155/fmc-2017-0164

$$$$

     RDKit          2D

 22 24  0  0  0  0  0  0  0  0999 V2000
   -7.0003   -0.4882    0.0000 C   0  0  0  0  0  0  0  0  0  0  0  0
   -5.5117   -0.3039    0.0000 N   0  0  0  0  0  0  0  0  0  0  0  0
   -4.6077   -1.5009    0.0000 C   0  0  0  0  0  0  0  0  0  0  0  0
   -3.1191   -1.3166    0.0000 C   0  0  0  0  0  0  0  0  0  0  0  0
   -2.2152   -2.5136    0.0000 O   0  0  0  0  0  0  0  0  0  0  0  0
   -0.7265   -2.3293    0.0000 C   0  0  0  0  0  0  0  0  0  0  0  0
   -0.0007   -1.0167    0.0000 C   0  0  0  0  0  0  0  0  0  0  0  0
    1.4721   -1.3014    0.0000 C   0  0  0  0  0  0  0  0  0  0  0  0
    2.5681   -0.2773    0.0000 C   0  0  0  0  0  0  0  0  0  0  0  0
    4.0030   -0.7143    0.0000 O   0  0  0  0  0  0  0  0  0  0  0  0
    5.0990    0.3098    0.0000 C   0  0  0  0  0  0  0  0  0  0  0  0
    6.5339   -0.1273    0.0000 C   0  0  0  0  0  0  0  0  0  0  0  0
    7.6298    0.8968    0.0000 C   0  0  0  0  0  0  0  0  0  0  0  0
    7.2909    2.3580    0.0000 C   0  0  0  0  0  0  0  0  0  0  0  0
    5.8560    2.7951    0.0000 C   0  0  0  0  0  0  0  0  0  0  0  0
    4.7600    1.7710    0.0000 C   0  0  0  0  0  0  0  0  0  0  0  0
    1.6564   -2.7900    0.0000 O   0  0  0  0  0  0  0  0  0  0  0  0
    0.2976   -3.4253    0.0000 N   0  0  0  0  0  0  0  0  0  0  0  0
   -4.9270    1.0775    0.0000 C   0  0  0  0  0  0  0  0  0  0  0  0
   -5.8309    2.2745    0.0000 C   0  0  0  0  0  0  0  0  0  0  0  0
   -7.2123    2.8592    0.0000 C   0  0  0  0  0  0  0  0  0  0  0  0
   -6.0153    3.7631    0.0000 C   0  0  0  0  0  0  0  0  0  0  0  0
  1  2  1  0
  2  3  1  0
  3  4  1  0
  4  5  1  0
  5  6  1  0
  6  7  1  0
  7  8  2  0
  8  9  1  0
  9 10  1  0
 10 11  1  0
 11 12  2  0
 12 13  1  0
 13 14  2  0
 14 15  1  0
 15 16  2  0
  8 17  1  0
 17 18  1  0
  2 19  1  0
 19 20  1  0
 20 21  1  0
 21 22  1  0
 18  6  2  0
 22 20  1  0
 16 11  1  0
M  END
>  <Compound_Key>  (1344) 
50

>  <Ki>  (1344) 
225.0

>  <database>  (1344) 
NewLiterature

>  <Document_ChEMBL_ID>  (1344) 
10.4155/fmc-2017-0164

$$$$

     RDKit          2D

 19 20  0  0  0  0  0  0  0  0999 V2000
   -4.8344   -2.8259    0.0000 C   0  0  0  0  0  0  0  0  0  0  0  0
   -3.6304   -1.9312    0.0000 N   0  0  0  0  0  0  0  0  0  0  0  0
   -2.2536   -2.5265    0.0000 C   0  0  0  0  0  0  0  0  0  0  0  0
   -3.8032   -0.4412    0.0000 C   0  0  0  0  0  0  0  0  0  0  0  0
   -5.1800    0.1541    0.0000 C   0  0  0  0  0  0  0  0  0  0  0  0
   -5.3529    1.6442    0.0000 C   0  0  0  0  0  0  0  0  0  0  0  0
   -4.1489    2.5388    0.0000 C   0  0  0  0  0  0  0  0  0  0  0  0
   -2.7721    1.9435    0.0000 C   0  0  0  0  0  0  0  0  0  0  0  0
   -2.5993    0.4535    0.0000 C   0  0  0  0  0  0  0  0  0  0  0  0
   -1.2225   -0.1418    0.0000 O   0  0  0  0  0  0  0  0  0  0  0  0
   -0.0185    0.7529    0.0000 C   0  0  0  0  0  0  0  0  0  0  0  0
    1.3583    0.1576    0.0000 C   0  0  0  0  0  0  0  0  0  0  0  0
    2.5623    1.0523    0.0000 C   0  0  0  0  0  0  0  0  0  0  0  0
    3.9391    0.4569    0.0000 C   0  0  0  0  0  0  0  0  0  0  0  0
    4.1119   -1.0331    0.0000 C   0  0  0  0  0  0  0  0  0  0  0  0
    5.4887   -1.6284    0.0000 C   0  0  0  0  0  0  0  0  0  0  0  0
    6.6927   -0.7337    0.0000 C   0  0  0  0  0  0  0  0  0  0  0  0
    6.5198    0.7563    0.0000 C   0  0  0  0  0  0  0  0  0  0  0  0
    5.1430    1.3516    0.0000 C   0  0  0  0  0  0  0  0  0  0  0  0
  1  2  1  0
  2  3  1  0
  4  2  1  6
  4  5  1  0
  5  6  1  0
  6  7  1  0
  7  8  1  0
  8  9  1  0
  9 10  1  1
 10 11  1  0
 11 12  1  0
 12 13  1  0
 13 14  1  0
 14 15  2  0
 15 16  1  0
 16 17  2  0
 17 18  1  0
 18 19  2  0
  9  4  1  0
 19 14  1  0
M  END
>  <Compound_Key>  (1345) 
51

>  <Ki>  (1345) 
1100.0

>  <database>  (1345) 
NewLiterature

>  <Document_ChEMBL_ID>  (1345) 
10.4155/fmc-2017-0164

$$$$

     RDKit          2D

 19 20  0  0  0  0  0  0  0  0999 V2000
   -4.8344   -2.8259    0.0000 C   0  0  0  0  0  0  0  0  0  0  0  0
   -3.6304   -1.9312    0.0000 N   0  0  0  0  0  0  0  0  0  0  0  0
   -2.2536   -2.5265    0.0000 C   0  0  0  0  0  0  0  0  0  0  0  0
   -3.8032   -0.4412    0.0000 C   0  0  0  0  0  0  0  0  0  0  0  0
   -5.1800    0.1541    0.0000 C   0  0  0  0  0  0  0  0  0  0  0  0
   -5.3529    1.6442    0.0000 C   0  0  0  0  0  0  0  0  0  0  0  0
   -4.1489    2.5388    0.0000 C   0  0  0  0  0  0  0  0  0  0  0  0
   -2.7721    1.9435    0.0000 C   0  0  0  0  0  0  0  0  0  0  0  0
   -2.5993    0.4535    0.0000 C   0  0  0  0  0  0  0  0  0  0  0  0
   -1.2225   -0.1418    0.0000 O   0  0  0  0  0  0  0  0  0  0  0  0
   -0.0185    0.7529    0.0000 C   0  0  0  0  0  0  0  0  0  0  0  0
    1.3583    0.1576    0.0000 C   0  0  0  0  0  0  0  0  0  0  0  0
    2.5623    1.0523    0.0000 C   0  0  0  0  0  0  0  0  0  0  0  0
    3.9391    0.4569    0.0000 C   0  0  0  0  0  0  0  0  0  0  0  0
    4.1119   -1.0331    0.0000 C   0  0  0  0  0  0  0  0  0  0  0  0
    5.4887   -1.6284    0.0000 C   0  0  0  0  0  0  0  0  0  0  0  0
    6.6927   -0.7337    0.0000 C   0  0  0  0  0  0  0  0  0  0  0  0
    6.5198    0.7563    0.0000 C   0  0  0  0  0  0  0  0  0  0  0  0
    5.1430    1.3516    0.0000 C   0  0  0  0  0  0  0  0  0  0  0  0
  1  2  1  0
  2  3  1  0
  4  2  1  6
  4  5  1  0
  5  6  1  0
  6  7  1  0
  7  8  1  0
  8  9  1  0
  9 10  1  1
 10 11  1  0
 11 12  1  0
 12 13  2  0
 13 14  1  0
 14 15  2  0
 15 16  1  0
 16 17  2  0
 17 18  1  0
 18 19  2  0
  9  4  1  0
 19 14  1  0
M  END
>  <Compound_Key>  (1346) 
52

>  <Ki>  (1346) 
3800.0

>  <database>  (1346) 
NewLiterature

>  <Document_ChEMBL_ID>  (1346) 
10.4155/fmc-2017-0164

$$$$

     RDKit          2D

 17 18  0  0  0  0  0  0  0  0999 V2000
   -1.9683    3.0962    0.0000 C   0  0  0  0  0  0  0  0  0  0  0  0
   -1.3858    1.7140    0.0000 N   0  0  0  0  0  0  0  0  0  0  0  0
    0.1026    1.5274    0.0000 C   0  0  0  0  0  0  0  0  0  0  0  0
    0.6851    0.1451    0.0000 C   0  0  0  0  0  0  0  0  0  0  0  0
    2.1735   -0.0415    0.0000 C   0  0  0  0  0  0  0  0  0  0  0  0
    2.7561   -1.4237    0.0000 C   0  0  0  0  0  0  0  0  0  0  0  0
    4.2444   -1.6103    0.0000 C   0  0  0  0  0  0  0  0  0  0  0  0
    5.1502   -0.4147    0.0000 C   0  0  0  0  0  0  0  0  0  0  0  0
    4.5676    0.9676    0.0000 C   0  0  0  0  0  0  0  0  0  0  0  0
    3.0793    1.1542    0.0000 C   0  0  0  0  0  0  0  0  0  0  0  0
   -2.2916    0.5184    0.0000 C   0  0  0  0  0  0  0  0  0  0  0  0
   -3.7799    0.7050    0.0000 C   0  0  0  0  0  0  0  0  0  0  0  0
   -4.6857   -0.4907    0.0000 C   0  0  0  0  0  0  0  0  0  0  0  0
   -4.1031   -1.8729    0.0000 C   0  0  0  0  0  0  0  0  0  0  0  0
   -2.6148   -2.0595    0.0000 C   0  0  0  0  0  0  0  0  0  0  0  0
   -1.7090   -0.8639    0.0000 C   0  0  0  0  0  0  0  0  0  0  0  0
   -0.2206   -1.0505    0.0000 O   0  0  0  0  0  0  0  0  0  0  0  0
  1  2  1  0
  2  3  1  0
  3  4  1  0
  4  5  1  0
  5  6  2  0
  6  7  1  0
  7  8  2  0
  8  9  1  0
  9 10  2  0
 11  2  1  1
 11 12  1  0
 12 13  1  0
 13 14  1  0
 14 15  1  0
 15 16  1  0
 16 17  1  6
 10  5  1  0
 16 11  1  0
M  END
>  <Compound_Key>  (1347) 
53

>  <Ki>  (1347) 
220.0

>  <database>  (1347) 
NewLiterature

>  <Document_ChEMBL_ID>  (1347) 
10.4155/fmc-2017-0164

$$$$

     RDKit          2D

 25 28  0  0  0  0  0  0  0  0999 V2000
    0.9742    2.1728    0.0000 C   0  0  0  0  0  0  0  0  0  0  0  0
    1.4103    1.5055    0.0000 C   0  0  0  0  0  0  0  0  0  0  0  0
    0.4295    0.3706    0.0000 C   0  0  0  0  0  0  0  0  0  0  0  0
    0.9219   -1.0463    0.0000 C   0  0  0  0  0  0  0  0  0  0  0  0
    2.3952   -1.3282    0.0000 C   0  0  0  0  0  0  0  0  0  0  0  0
    2.8876   -2.7451    0.0000 C   0  0  0  0  0  0  0  0  0  0  0  0
    4.3609   -3.0271    0.0000 C   0  0  0  0  0  0  0  0  0  0  0  0
    5.3417   -1.8922    0.0000 C   0  0  0  0  0  0  0  0  0  0  0  0
    6.8150   -2.1741    0.0000 O   0  0  0  0  0  0  0  0  0  0  0  0
    4.8493   -0.4753    0.0000 C   0  0  0  0  0  0  0  0  0  0  0  0
    3.3760   -0.1933    0.0000 C   0  0  0  0  0  0  0  0  0  0  0  0
    2.8835    1.2235    0.0000 C   0  0  0  0  0  0  0  0  0  0  0  0
    3.8644    2.3584    0.0000 C   0  0  0  0  0  0  0  0  0  0  0  0
    2.3911    2.6404    0.0000 C   0  0  0  0  0  0  0  0  0  0  0  0
    0.9178    2.9224    0.0000 C   0  0  0  0  0  0  0  0  0  0  0  0
   -0.0630    1.7875    0.0000 N   0  0  0  0  0  0  0  0  0  0  0  0
   -1.5362    2.0694    0.0000 C   0  0  0  0  0  0  0  0  0  0  0  0
   -2.5171    0.9345    0.0000 C   0  0  0  0  0  0  0  0  0  0  0  0
   -3.9903    1.2165    0.0000 N   0  0  0  0  0  0  0  0  0  0  0  0
   -4.9711    0.0816    0.0000 C   0  0  0  0  0  0  0  0  0  0  0  0
   -6.4444    0.3635    0.0000 C   0  0  0  0  0  0  0  0  0  0  0  0
   -7.4252   -0.7714    0.0000 C   0  0  0  0  0  0  0  0  0  0  0  0
   -6.9328   -2.1882    0.0000 C   0  0  0  0  0  0  0  0  0  0  0  0
   -5.4595   -2.4702    0.0000 C   0  0  0  0  0  0  0  0  0  0  0  0
   -4.4787   -1.3353    0.0000 C   0  0  0  0  0  0  0  0  0  0  0  0
  2  1  1  1
  2  3  1  0
  3  4  1  6
  4  5  1  0
  5  6  2  0
  6  7  1  0
  7  8  2  0
  8  9  1  0
  8 10  1  0
 10 11  2  0
 11 12  1  0
 12 13  1  6
 12 14  1  0
 14 15  1  0
 15 16  1  0
 16 17  1  0
 17 18  1  0
 18 19  1  0
 19 20  1  0
 20 21  2  0
 21 22  1  0
 22 23  2  0
 23 24  1  0
 24 25  2  0
 12  2  1  0
 25 20  1  0
 16  3  1  0
 11  5  1  0
M  END
>  <ChemBL_ID>  (1348) 
CHEMBL287794

>  <Compound_Key>  (1348) 
8c

>  <Ki>  (1348) 
111.0

>  <database>  (1348) 
CHEMBL

>  <Assay_ChEMBL_ID>  (1348) 
CHEMBL805218

>  <Document_ChEMBL_ID>  (1348) 
CHEMBL1131505

$$$$

     RDKit          2D

 26 28  0  0  0  0  0  0  0  0999 V2000
   -5.0110    2.5014    0.0000 C   0  0  0  0  0  0  0  0  0  0  0  0
   -3.8788    1.5175    0.0000 N   0  0  0  0  0  0  0  0  0  0  0  0
   -2.4605    2.0060    0.0000 C   0  0  0  0  0  0  0  0  0  0  0  0
   -1.3284    1.0221    0.0000 C   0  0  0  0  0  0  0  0  0  0  0  0
    0.0899    1.5106    0.0000 C   0  0  0  0  0  0  0  0  0  0  0  0
    1.2220    0.5266    0.0000 C   0  0  0  0  0  0  0  0  0  0  0  0
    2.6403    1.0152    0.0000 C   0  0  0  0  0  0  0  0  0  0  0  0
    2.9263    2.4876    0.0000 C   0  0  0  0  0  0  0  0  0  0  0  0
    1.7941    3.4716    0.0000 C   0  0  0  0  0  0  0  0  0  0  0  0
    0.3759    2.9831    0.0000 C   0  0  0  0  0  0  0  0  0  0  0  0
   -4.1648    0.0450    0.0000 C   0  0  0  0  0  0  0  0  0  0  0  0
   -5.5830   -0.4435    0.0000 C   0  0  0  0  0  0  0  0  0  0  0  0
   -5.8691   -1.9160    0.0000 C   0  0  0  0  0  0  0  0  0  0  0  0
   -4.7369   -2.8999    0.0000 C   0  0  0  0  0  0  0  0  0  0  0  0
   -3.3187   -2.4114    0.0000 C   0  0  0  0  0  0  0  0  0  0  0  0
   -3.0326   -0.9389    0.0000 C   0  0  0  0  0  0  0  0  0  0  0  0
   -1.6144   -0.4504    0.0000 O   0  0  0  0  0  0  0  0  0  0  0  0
   -0.4822   -1.4344    0.0000 C   0  0  0  0  0  0  0  0  0  0  0  0
    0.9360   -0.9458    0.0000 C   0  0  0  0  0  0  0  0  0  0  0  0
    2.0682   -1.9298    0.0000 C   0  0  0  0  0  0  0  0  0  0  0  0
    3.4864   -1.4413    0.0000 C   0  0  0  0  0  0  0  0  0  0  0  0
    4.6186   -2.4252    0.0000 C   0  0  0  0  0  0  0  0  0  0  0  0
    6.0368   -1.9367    0.0000 C   0  0  0  0  0  0  0  0  0  0  0  0
    6.3228   -0.4642    0.0000 C   0  0  0  0  0  0  0  0  0  0  0  0
    5.1907    0.5197    0.0000 C   0  0  0  0  0  0  0  0  0  0  0  0
    3.7724    0.0312    0.0000 C   0  0  0  0  0  0  0  0  0  0  0  0
  1  2  1  0
  2  3  1  0
  3  4  1  0
  4  5  1  0
  5  6  2  0
  6  7  1  0
  7  8  2  0
  8  9  1  0
  9 10  2  0
  2 11  1  0
 11 12  1  0
 12 13  1  0
 13 14  1  0
 14 15  1  0
 15 16  1  0
 16 17  1  0
 17 18  1  0
 18 19  1  0
 19 20  1  0
 20 21  1  0
 21 22  2  0
 22 23  1  0
 23 24  2  0
 24 25  1  0
 25 26  2  0
 10  5  1  0
 16 11  1  0
 26 21  1  0
M  END
>  <Compound_Key>  (1349) 
55

>  <Ki>  (1349) 
570.0

>  <database>  (1349) 
NewLiterature

>  <Document_ChEMBL_ID>  (1349) 
10.4155/fmc-2017-0164

$$$$

     RDKit          2D

 25 29  0  0  0  0  0  0  0  0999 V2000
   -0.0273    2.5155    0.0000 C   0  0  0  0  0  0  0  0  0  0  0  0
    0.6334    1.1688    0.0000 C   0  0  0  0  0  0  0  0  0  0  0  0
   -0.0678   -0.1573    0.0000 C   0  0  0  0  0  0  0  0  0  0  0  0
   -1.1444   -1.2017    0.0000 N   0  0  0  0  0  0  0  0  0  0  0  0
   -2.6442   -1.1790    0.0000 C   0  0  0  0  0  0  0  0  0  0  0  0
   -3.3745    0.1312    0.0000 C   0  0  0  0  0  0  0  0  0  0  0  0
   -4.8743    0.1539    0.0000 N   0  0  0  0  0  0  0  0  0  0  0  0
   -5.6045    1.4642    0.0000 C   0  0  0  0  0  0  0  0  0  0  0  0
   -7.1044    1.4869    0.0000 C   0  0  0  0  0  0  0  0  0  0  0  0
   -7.8739    0.1994    0.0000 C   0  0  0  0  0  0  0  0  0  0  0  0
   -7.1437   -1.1109    0.0000 C   0  0  0  0  0  0  0  0  0  0  0  0
   -5.6439   -1.1336    0.0000 C   0  0  0  0  0  0  0  0  0  0  0  0
   -0.0999   -2.2783    0.0000 C   0  0  0  0  0  0  0  0  0  0  0  0
    0.9767   -1.2339    0.0000 C   0  0  0  0  0  0  0  0  0  0  0  0
    2.3027   -1.9350    0.0000 C   0  0  0  0  0  0  0  0  0  0  0  0
    3.5730   -1.1372    0.0000 C   0  0  0  0  0  0  0  0  0  0  0  0
    4.8990   -1.8383    0.0000 C   0  0  0  0  0  0  0  0  0  0  0  0
    6.1692   -1.0405    0.0000 C   0  0  0  0  0  0  0  0  0  0  0  0
    6.1134    0.4584    0.0000 C   0  0  0  0  0  0  0  0  0  0  0  0
    7.3837    1.2562    0.0000 O   0  0  0  0  0  0  0  0  0  0  0  0
    4.7874    1.1596    0.0000 C   0  0  0  0  0  0  0  0  0  0  0  0
    3.5171    0.3618    0.0000 C   0  0  0  0  0  0  0  0  0  0  0  0
    2.1911    1.0629    0.0000 C   0  0  0  0  0  0  0  0  0  0  0  0
    2.1353    2.5619    0.0000 C   0  0  0  0  0  0  0  0  0  0  0  0
    0.9209    0.2651    0.0000 C   0  0  0  0  0  0  0  0  0  0  0  0
  2  1  1  1
  2  3  1  0
  3  4  1  6
  4  5  1  0
  5  6  1  0
  6  7  1  0
  7  8  1  0
  8  9  1  0
  9 10  1  0
 10 11  1  0
 11 12  1  0
  4 13  1  0
 13 14  1  0
 14 15  1  0
 15 16  1  0
 16 17  2  0
 17 18  1  0
 18 19  2  0
 19 20  1  0
 19 21  1  0
 21 22  2  0
 22 23  1  0
 23 24  1  1
 23 25  1  0
 23  2  1  0
 14  3  1  0
 22 16  1  0
 12  7  1  0
 25 14  1  0
M  END
>  <Compound_Key>  (1350) 
59

>  <Ki>  (1350) 
114.0

>  <database>  (1350) 
NewLiterature

>  <Document_ChEMBL_ID>  (1350) 
10.4155/fmc-2017-0164

$$$$

     RDKit          2D

 25 29  0  0  0  0  0  0  0  0999 V2000
   -0.0273    2.5155    0.0000 C   0  0  0  0  0  0  0  0  0  0  0  0
    0.6334    1.1688    0.0000 C   0  0  0  0  0  0  0  0  0  0  0  0
   -0.0678   -0.1573    0.0000 C   0  0  0  0  0  0  0  0  0  0  0  0
   -1.1444   -1.2017    0.0000 N   0  0  0  0  0  0  0  0  0  0  0  0
   -2.6442   -1.1790    0.0000 C   0  0  0  0  0  0  0  0  0  0  0  0
   -3.3745    0.1312    0.0000 C   0  0  0  0  0  0  0  0  0  0  0  0
   -4.8743    0.1539    0.0000 N   0  0  0  0  0  0  0  0  0  0  0  0
   -5.6045    1.4642    0.0000 C   0  0  0  0  0  0  0  0  0  0  0  0
   -7.1044    1.4869    0.0000 C   0  0  0  0  0  0  0  0  0  0  0  0
   -7.8739    0.1994    0.0000 O   0  0  0  0  0  0  0  0  0  0  0  0
   -7.1437   -1.1109    0.0000 C   0  0  0  0  0  0  0  0  0  0  0  0
   -5.6439   -1.1336    0.0000 C   0  0  0  0  0  0  0  0  0  0  0  0
   -0.0999   -2.2783    0.0000 C   0  0  0  0  0  0  0  0  0  0  0  0
    0.9767   -1.2339    0.0000 C   0  0  0  0  0  0  0  0  0  0  0  0
    2.3027   -1.9350    0.0000 C   0  0  0  0  0  0  0  0  0  0  0  0
    3.5730   -1.1372    0.0000 C   0  0  0  0  0  0  0  0  0  0  0  0
    4.8990   -1.8383    0.0000 C   0  0  0  0  0  0  0  0  0  0  0  0
    6.1692   -1.0405    0.0000 C   0  0  0  0  0  0  0  0  0  0  0  0
    6.1134    0.4584    0.0000 C   0  0  0  0  0  0  0  0  0  0  0  0
    7.3837    1.2562    0.0000 O   0  0  0  0  0  0  0  0  0  0  0  0
    4.7874    1.1596    0.0000 C   0  0  0  0  0  0  0  0  0  0  0  0
    3.5171    0.3618    0.0000 C   0  0  0  0  0  0  0  0  0  0  0  0
    2.1911    1.0629    0.0000 C   0  0  0  0  0  0  0  0  0  0  0  0
    2.1353    2.5619    0.0000 C   0  0  0  0  0  0  0  0  0  0  0  0
    0.9209    0.2651    0.0000 C   0  0  0  0  0  0  0  0  0  0  0  0
  2  1  1  1
  2  3  1  0
  3  4  1  6
  4  5  1  0
  5  6  1  0
  6  7  1  0
  7  8  1  0
  8  9  1  0
  9 10  1  0
 10 11  1  0
 11 12  1  0
  4 13  1  0
 13 14  1  0
 14 15  1  0
 15 16  1  0
 16 17  2  0
 17 18  1  0
 18 19  2  0
 19 20  1  0
 19 21  1  0
 21 22  2  0
 22 23  1  0
 23 24  1  1
 23 25  1  0
 23  2  1  0
 14  3  1  0
 22 16  1  0
 12  7  1  0
 25 14  1  0
M  END
>  <Compound_Key>  (1351) 
60

>  <Ki>  (1351) 
300.0

>  <database>  (1351) 
NewLiterature

>  <Document_ChEMBL_ID>  (1351) 
10.4155/fmc-2017-0164

$$$$

     RDKit          2D

 24 26  0  0  0  0  0  0  0  0999 V2000
    2.3668   -2.6235    0.0000 C   0  0  0  0  0  0  0  0  0  0  0  0
    3.4797   -1.6178    0.0000 C   0  0  0  0  0  0  0  0  0  0  0  0
    3.1652   -0.1511    0.0000 C   0  0  0  0  0  0  0  0  0  0  0  0
    4.6642   -0.0961    0.0000 C   0  0  0  0  0  0  0  0  0  0  0  0
    5.4614   -1.3667    0.0000 C   0  0  0  0  0  0  0  0  0  0  0  0
    6.9603   -1.3116    0.0000 C   0  0  0  0  0  0  0  0  0  0  0  0
    7.6621    0.0141    0.0000 C   0  0  0  0  0  0  0  0  0  0  0  0
    6.8650    1.2847    0.0000 C   0  0  0  0  0  0  0  0  0  0  0  0
    5.3660    1.2296    0.0000 C   0  0  0  0  0  0  0  0  0  0  0  0
    3.3712    1.3346    0.0000 O   0  0  0  0  0  0  0  0  0  0  0  0
    2.1875    2.2560    0.0000 C   0  0  0  0  0  0  0  0  0  0  0  0
    0.7978    1.6915    0.0000 C   0  0  0  0  0  0  0  0  0  0  0  0
    0.5917    0.2058    0.0000 C   0  0  0  0  0  0  0  0  0  0  0  0
   -0.7980   -0.3587    0.0000 C   0  0  0  0  0  0  0  0  0  0  0  0
   -1.9817    0.5627    0.0000 C   0  0  0  0  0  0  0  0  0  0  0  0
   -3.3715   -0.0018    0.0000 N   0  0  0  0  0  0  0  0  0  0  0  0
   -4.5552    0.9196    0.0000 C   0  0  0  0  0  0  0  0  0  0  0  0
   -5.9449    0.3552    0.0000 C   0  0  0  0  0  0  0  0  0  0  0  0
   -7.1286    1.2765    0.0000 C   0  0  0  0  0  0  0  0  0  0  0  0
   -8.5184    0.7121    0.0000 C   0  0  0  0  0  0  0  0  0  0  0  0
   -8.7244   -0.7737    0.0000 C   0  0  0  0  0  0  0  0  0  0  0  0
   -7.5407   -1.6951    0.0000 C   0  0  0  0  0  0  0  0  0  0  0  0
   -6.1510   -1.1306    0.0000 C   0  0  0  0  0  0  0  0  0  0  0  0
    1.7754   -0.7156    0.0000 O   0  0  0  0  0  0  0  0  0  0  0  0
  1  2  1  0
  3  2  1  1
  3  4  1  0
  4  5  2  0
  5  6  1  0
  6  7  2  0
  7  8  1  0
  8  9  2  0
  3 10  1  0
 10 11  1  0
 11 12  1  0
 12 13  1  0
 13 14  1  1
 14 15  1  0
 15 16  1  0
 16 17  1  0
 17 18  1  0
 18 19  2  0
 19 20  1  0
 20 21  2  0
 21 22  1  0
 22 23  2  0
 13 24  1  0
 24  3  1  0
  9  4  1  0
 23 18  1  0
M  END
>  <Compound_Key>  (1352) 
61

>  <Ki>  (1352) 
903.0

>  <database>  (1352) 
NewLiterature

>  <Document_ChEMBL_ID>  (1352) 
10.4155/fmc-2017-0164

$$$$

     RDKit          2D

 22 24  0  0  0  0  0  0  0  0999 V2000
    7.8370   -0.6398    0.0000 C   0  0  0  0  0  0  0  0  0  0  0  0
    7.0789   -1.9341    0.0000 C   0  0  0  0  0  0  0  0  0  0  0  0
    5.5789   -1.9246    0.0000 C   0  0  0  0  0  0  0  0  0  0  0  0
    4.8371   -0.6209    0.0000 C   0  0  0  0  0  0  0  0  0  0  0  0
    3.3371   -0.6115    0.0000 C   0  0  0  0  0  0  0  0  0  0  0  0
    2.5953    0.6923    0.0000 N   0  0  0  0  0  0  0  0  0  0  0  0
    1.0953    0.7017    0.0000 C   0  0  0  0  0  0  0  0  0  0  0  0
    0.3535    2.0054    0.0000 C   0  0  0  0  0  0  0  0  0  0  0  0
   -1.1464    2.0149    0.0000 C   0  0  0  0  0  0  0  0  0  0  0  0
   -1.8883    3.3186    0.0000 C   0  0  0  0  0  0  0  0  0  0  0  0
   -3.3882    3.3280    0.0000 C   0  0  0  0  0  0  0  0  0  0  0  0
   -4.1464    2.0337    0.0000 O   0  0  0  0  0  0  0  0  0  0  0  0
   -3.4046    0.7300    0.0000 C   0  0  0  0  0  0  0  0  0  0  0  0
   -4.1627   -0.5643    0.0000 C   0  0  0  0  0  0  0  0  0  0  0  0
   -5.6627   -0.5549    0.0000 C   0  0  0  0  0  0  0  0  0  0  0  0
   -6.4208   -1.8492    0.0000 C   0  0  0  0  0  0  0  0  0  0  0  0
   -5.6790   -3.1529    0.0000 C   0  0  0  0  0  0  0  0  0  0  0  0
   -4.1791   -3.1623    0.0000 C   0  0  0  0  0  0  0  0  0  0  0  0
   -3.4209   -1.8680    0.0000 C   0  0  0  0  0  0  0  0  0  0  0  0
   -1.9046    0.7206    0.0000 O   0  0  0  0  0  0  0  0  0  0  0  0
    5.5953    0.6734    0.0000 C   0  0  0  0  0  0  0  0  0  0  0  0
    7.0952    0.6640    0.0000 C   0  0  0  0  0  0  0  0  0  0  0  0
  1  2  2  0
  2  3  1  0
  3  4  2  0
  4  5  1  0
  5  6  1  0
  6  7  1  0
  7  8  1  0
  9  8  1  1
  9 10  1  0
 10 11  1  0
 11 12  1  0
 12 13  1  0
 13 14  1  1
 14 15  2  0
 15 16  1  0
 16 17  2  0
 17 18  1  0
 18 19  2  0
 13 20  1  0
  4 21  1  0
 21 22  2  0
 22  1  1  0
 20  9  1  0
 19 14  1  0
M  END
>  <Compound_Key>  (1353) 
62

>  <Ki>  (1353) 
92.0

>  <database>  (1353) 
NewLiterature

>  <Document_ChEMBL_ID>  (1353) 
10.4155/fmc-2017-0164

$$$$

     RDKit          2D

 27 30  0  0  0  0  0  0  0  0999 V2000
   -8.2615   -1.4642    0.0000 C   0  0  0  0  0  0  0  0  0  0  0  0
   -8.5153    0.0142    0.0000 C   0  0  0  0  0  0  0  0  0  0  0  0
   -7.3620    0.9732    0.0000 C   0  0  0  0  0  0  0  0  0  0  0  0
   -5.9547    0.4539    0.0000 C   0  0  0  0  0  0  0  0  0  0  0  0
   -4.8014    1.4129    0.0000 C   0  0  0  0  0  0  0  0  0  0  0  0
   -3.3942    0.8936    0.0000 N   0  0  0  0  0  0  0  0  0  0  0  0
   -2.2408    1.8526    0.0000 C   0  0  0  0  0  0  0  0  0  0  0  0
   -0.8336    1.3333    0.0000 C   0  0  0  0  0  0  0  0  0  0  0  0
   -0.5797   -0.1451    0.0000 C   0  0  0  0  0  0  0  0  0  0  0  0
    0.8275   -0.6644    0.0000 O   0  0  0  0  0  0  0  0  0  0  0  0
    1.9809    0.2946    0.0000 C   0  0  0  0  0  0  0  0  0  0  0  0
    3.3927    0.8014    0.0000 C   0  0  0  0  0  0  0  0  0  0  0  0
    4.5375   -0.1679    0.0000 C   0  0  0  0  0  0  0  0  0  0  0  0
    5.9493    0.3388    0.0000 C   0  0  0  0  0  0  0  0  0  0  0  0
    6.2164    1.8148    0.0000 C   0  0  0  0  0  0  0  0  0  0  0  0
    5.0716    2.7841    0.0000 C   0  0  0  0  0  0  0  0  0  0  0  0
    3.6598    2.2774    0.0000 C   0  0  0  0  0  0  0  0  0  0  0  0
    2.7251   -1.0077    0.0000 C   0  0  0  0  0  0  0  0  0  0  0  0
    1.9693   -2.3034    0.0000 C   0  0  0  0  0  0  0  0  0  0  0  0
    2.7135   -3.6058    0.0000 C   0  0  0  0  0  0  0  0  0  0  0  0
    4.2135   -3.6125    0.0000 C   0  0  0  0  0  0  0  0  0  0  0  0
    4.9693   -2.3168    0.0000 C   0  0  0  0  0  0  0  0  0  0  0  0
    4.2251   -1.0144    0.0000 C   0  0  0  0  0  0  0  0  0  0  0  0
    1.7270    1.7730    0.0000 C   0  0  0  0  0  0  0  0  0  0  0  0
    0.3198    2.2923    0.0000 O   0  0  0  0  0  0  0  0  0  0  0  0
   -5.7009   -1.0245    0.0000 C   0  0  0  0  0  0  0  0  0  0  0  0
   -6.8542   -1.9835    0.0000 C   0  0  0  0  0  0  0  0  0  0  0  0
  1  2  2  0
  2  3  1  0
  3  4  2  0
  4  5  1  0
  5  6  1  0
  6  7  1  0
  7  8  1  0
  8  9  1  0
  9 10  1  0
 10 11  1  0
 11 12  1  0
 12 13  2  0
 13 14  1  0
 14 15  2  0
 15 16  1  0
 16 17  2  0
 11 18  1  0
 18 19  2  0
 19 20  1  0
 20 21  2  0
 21 22  1  0
 22 23  2  0
 11 24  1  0
 24 25  1  0
  4 26  1  0
 26 27  2  0
 27  1  1  0
 25  8  1  0
 17 12  1  0
 23 18  1  0
M  END
>  <Compound_Key>  (1354) 
63

>  <Ki>  (1354) 
1000.0

>  <database>  (1354) 
NewLiterature

>  <Document_ChEMBL_ID>  (1354) 
10.4155/fmc-2017-0164

$$$$
